Memulai proses RAG dengan mesin vLLM...

[1] Membaca & splitting halaman wiki berdasarkan struktur HTML...
    Mengambil sitemap...
    → 63 URL ditemukan
    [1/63] ALELEON Supercomputer: 771 chars
    [2/63] Submit Script ALELEON Supercomputer: 7660 chars
    [3/63] Core Hour: 3615 chars
    [4/63] Katalog Software ALELEON Supercomputer: 6932 chars
    [5/63] Pendaftaran dan Biaya ALELEON Supercomputer: 5348 chars
    [6/63] R: 12150 chars
    [7/63] Spesifikasi ALELEON Supercomputer: 3325 chars
    [8/63] GROMACS: 14179 chars
    [9/63] NWChem: 5806 chars
    [10/63] Quantum ESPRESSO: 8717 chars
    [11/63] GAMESS: 5762 chars
    [12/63] NAMD: 7430 chars
    [13/63] ORCA: 8965 chars
    [14/63] Koneksi VPN ALELEON Supercomputer: 3964 chars
    [15/63] COMCOT: 5626 chars
    [16/63] PHASE/0: 8050 chars
    [17/63] EasyBuild: 2106 chars
    [18/63] MPI ALELEON Supercomputer: 11867 chars
    [19/63] EUREKA!: 413 chars
    [20/63] EUREKA! Periode 2: 2044 chars
    [21/63] Daftar Software Komputasi dan Tutorial Penggunaan: 1875 chars
    [22/63] CP2K: 10557 chars
    [23/63] SPECFEM3D: 30 chars
    [24/63] SW-GXN: 16317 chars
    [25/63] LAMMPS: 10353 chars
    [26/63] DFTB%2B: 7948 chars
    [27/63] OpenMX: 9413 chars
    [28/63] Publikasi Pengguna ALELEON Supercomputer: 3789 chars
    [29/63] Limitasi Fair Usage ALELEON Supercomputer: 2596 chars
    [30/63] Kode Reason ALELEON Supercomputer: 1270 chars
    [31/63] Komputasi Python dengan Conda Environment User: 17551 chars
    [32/63] Komputasi Python: 203 chars
    [33/63] Komputasi dengan Container User via Apptainer: 17524 chars
    [34/63] Trial Testing: 360 chars
    [35/63] ALELEON Desktop: 2471 chars
    [36/63] Upload - Download File ALELEON: 2000 chars
    [37/63] TRIAL A6: 21518 chars
    [38/63] Troubleshooting dan Support: 7910 chars
    [39/63] Tutorial Menggunakan ALELEON Supercomputer Mk.V: 3056 chars
    [40/63] Login Pertama ALELEON Supercomputer: 1863 chars
    [41/63] EFIRO Account Manager: 2900 chars
    [42/63] Pengantar SSH Key: 2598 chars
    [43/63] Sausage dan Aturan Metrik Penggunaan ALELEON: 6228 chars
    [44/63] Daftar Environment Python ALELEON: 203 chars
    [45/63] Pengenalan Menggunakan ALELEON Supercomputer: 3049 chars
    [46/63] Metode Komputasi di ALELEON: 3683 chars
    [47/63] Migrasi Akun dan Data Mk.III ke Mk.V: 5921 chars
    [48/63] SW-AMK: 6972 chars
    [49/63] Login SSH dan SFTP ALELEON Supercomputer: 4694 chars
    [50/63] SIESTA: 7939 chars
    [51/63] SW-AJFT: 15972 chars
    [52/63] X: 547 chars
    [53/63] Komputasi Python dengan Python venv User: 203 chars
    [54/63] Software Komputasi Instalasi User: 1340 chars
    [55/63] Phono3py dan Phonopy: 12622 chars
    [56/63] Registrasi SSH Key ALELEON Supercomputer: 5164 chars
    [57/63] BoltzTraP2: 13253 chars
    [58/63] AI Compilation: 203 chars
    [59/63] ACPYPE: 12747 chars
    [60/63] GMX-MMPBSA: 12476 chars
    [61/63] AutoGluon: 203 chars
    [62/63] XUIN Temporary: 5788 chars
    [63/63] Software Komputasi dari User: 203 chars
    → Setelah splitting: 247 chunks

    [Chunk 0] (771 chars):
    Selamat datang di wiki ALELEON Supercomputer! ALELEON Supercomputer adalah layanan superkomputer publik pertama dari EFI...

    [Chunk 1] (1996 chars):
    Halaman ini menjelaskan pemahaman
Submit Script
yang merupakan 'formulir' untuk menjalankan komputasi batch job melalui
...

    [Chunk 2] (1973 chars):
    . SLURM punya ratusan opsi parameter SBATCH dimana panduan ini memberikan daftar esensial dan pemahaman mendalam pada pe...

    [Chunk 3] (1923 chars):
    SBATCH
cpus-per-task
berpasangan dengan SBATCH
ntasks
, contoh:
# ntasks mewakili jumlah core CPU atau proses MPI
#SBATC...

    [Chunk 4] (1630 chars):
    #SBATCH --error=error-%j.txt
`
#SBATCH
--mail
untuk Notifikasi Email
Slurm ALELEON Supercomputer dapat mengirim notifika...

    [Chunk 5] (641 chars):
    module load
nama-modul-software
# Alur jalannya program ...
Daftar modul software yang lengkap dirangkum pada:
Halaman
[...

    [Chunk 6] (1996 chars):
    Core Hour adalah metrik yang digunakan oleh ALELEON Supercomputer untuk menghitung biaya penggunaan bagi penggunanya. Ha...

    [Chunk 7] (1793 chars):
    Slurm GPU minutes
= jumlah alokasi GPU
*
waktu job berjalan (satuan menit)
Kemudian ALELEON menkonversinya ke core hour:...

    [Chunk 8] (1994 chars):
    Halaman ini memuat info daftar software terinstal di ALELEON Supercomputer.
- Daftar isi -
Layanan Gratis Instalasi Soft...

    [Chunk 9] (1932 chars):
    $
ml av
keyword
Mengaktifkan modul software
$
ml
nama-modul
Abaikan pesan berikut
apabila muncul setelah memuat modul:
L...

    [Chunk 10] (1983 chars):
    Open MPI 5.0.8
(GCC 15.2.0)
openmpi/5.0.8-gcc-15.2.0-bip
Open MPI 5.0.8
(GCC 15.2.0 + CUDA 12.9.0)
openmpi/5.0.8-gcc-15....

    [Chunk 11] (1581 chars):
    Compute node GPU (Partisi ampere) terpasang 2x RTX 3090 NVLink sehingga rekomendasi gunakan
multi-GPU NVIDIA library
sep...

    [Chunk 12] (1942 chars):
    Halaman ini memuat informasi pendaftaran akun untuk menggunakan ALELEON Supercomputer beserta biayanya.
- Daftar Isi -
K...

    [Chunk 13] (1920 chars):
    Ketentuan akun golongan perseorangan:
Pengguna perseorangan adalah Warga Negara Indonesia (WNI).
Setuju dengan
[
Syarat ...

    [Chunk 14] (1827 chars):
    yang menjadi acuan penggunaan baik secara bisnis dan teknis.
PKSPIAS ditandatangani atas nama institusi dengan kredensia...

    [Chunk 15] (1965 chars):
    R adalah bahasa interpreter yang didesain untuk mengerjakan komputasi statistika. Pada perkembangannya, bahasa R digunak...

    [Chunk 16] (1982 chars):
    ')
Package akan terinstal di direktori
HOME user
.
Bagi user yang pertama kali melakukan instalasi package R:
Akan ada p...

    [Chunk 17] (1987 chars):
    # -----------------------------------------------------
# Alokasi komputasi SBATCH, input, dan module
# ----------------...

    [Chunk 18] (1997 chars):
    INPUT_FILE
=
"////.R"
# Memuat modul software R
# Daftar modul lihat subbab "Modul R" di atas
module load R////
# ------...

    [Chunk 19] (1962 chars):
    ->
From Template
3
Pilih template R yang diinginkan:
Nama Template
Penjelasan
R 4.3.0 "Already Tomorrow"
Menjalankan R v...

    [Chunk 20] (1969 chars):
    Kolom
Folder Contents
.
8
Untuk menghapus ruang job dan datanya:
Pilih ruang job yang akan dihapus.
Klik menu
Delete
Tip...

    [Chunk 21] (1429 chars):
    Conda environment directory
->
Kosongkan
Software modules
->
Masukkan nama modul R yang digunakan
Environment setup
->
K...

    [Chunk 22] (1974 chars):
    ALELEON Supercomputer saat ini menggunakan
ALELEON Mk.V
- superkomputer
custom
EFISON generasi kelima dengan platform EF...

    [Chunk 23] (1528 chars):
    1.1
Partisi epyc
1.2
Partisi epyc-jumbo
1.3
Partisi ampere
2
Spesifikasi Interactive Node
2.1
Partisi torti
2.2
Partisi ...

    [Chunk 24] (1969 chars):
    [
GROMACS
]
adalah package berkecepatan tinggi untuk komputasi dinamika molekular baik untuk biokimia (seperti protein, ...

    [Chunk 25] (1990 chars):
    Pre-processing berat gunakan batch job.
- Pre-processing di Login Node -
Ketentuan:
Berjalan di login node dengan
alokas...

    [Chunk 26] (1970 chars):
    Aktifkan environment ACPYPE:
$
ml Anaconda3/2024.06-1
$
source activate $CENV1/ACPYPE_2023.10.27
Kemudian user dapat men...

    [Chunk 27] (1980 chars):
    $
sausage
Pilih menu
slimit
, job type
Batch Job
menghitung rentang SBATCH
CPU, memori, GPU, dan time
Info SBATCH lainny...

    [Chunk 28] (1969 chars):
    Pilih ruang job yang akan dihapus lalu klik
[Delete]
Perhatikan opsi ini
menghapus data
di ruang job tersebut.
---
Di Te...

    [Chunk 29] (1998 chars):
    #SBATCH --time=////
# File output terminal, %j merekap no ID job
#SBATCH --output=result-%j.txt
# File output log status...

    [Chunk 30] (1998 chars):
    # Limit waktu job (HH:MM:SS atau D-HH:MM:SS)
# ex: 1 hari -> 24:00:00 atau 1-00:00:00
#SBATCH --time=////
# File output ...

    [Chunk 31] (1566 chars):
    Buka menu
Jobs > Active Jobs
Bila belum, ganti mode
All Jobs
ke
Your Jobs
Klik tombol
>
pada job user yang akan dipantau...

    [Chunk 32] (1989 chars):
    NWChem
adalah software komputasi kimia untuk biomolekul, kimia kuantum, kimia klasik,
Gaussian, nanostructures, solid-st...

    [Chunk 33] (1990 chars):
    # Alokasi jumlah core thread CPU
#SBATCH --ntasks=////
# Alokasi jumlah memori RAM (satuan GB)
#SBATCH --mem=////GB
# Al...

    [Chunk 34] (1955 chars):
    $ scancel 231
Job Submission Web EFIRO
Langkah Job Submission Web EFIRO
1
Login ke web EFIRO
ALELEON Supercomputer.
2
Bu...

    [Chunk 35] (411 chars):
    Folder Contents
Atau dengan membuka menu
Edit Files
Kolom
Folder Contents
.
8
Untuk menghapus ruang job dan datanya:
Pil...

    [Chunk 36] (1990 chars):
    [
Quantum ESPRESSO
]
adalah framework suite untuk kalkulasi
electronic-structure
dan modeling material berdasarkan
densi...

    [Chunk 37] (1997 chars):
    a.
Klik
[Open Editor]
b.
Ikuti petunjuk
NOTES
dan alur script di dalamnya.
c.
Klik
[Save]
untuk menyimpan script.
Info l...

    [Chunk 38] (1969 chars):
    Pilih ruang job yang akan dihapus.
Klik
[Delete]
*
2B. Batch Job dengan Slurm di Terminal
.
Batch job berjalan di
[
comp...

    [Chunk 39] (1956 chars):
    # > File output status dan error
#SBATCH --error=error-%j.txt
# --------------------------------------------------
# Scr...

    [Chunk 40] (1559 chars):
    - contoh membatalkan job ID 231:
$
scancel
231
CG (COMPLETING)
- job selesai dan proses
clean-up
.
CA (CANCELED)
- job d...

    [Chunk 41] (1990 chars):
    GAMESS
(General Atomic and Molecular Electronic Structure System) adalah package
ab-inito
kimia kuantum untuk komputasi ...

    [Chunk 42] (1999 chars):
    # Alokasi jumlah core thread CPU
#SBATCH --ntasks=////
# Alokasi jumlah memori RAM (satuan GB)
#SBATCH --mem=////GB
# Al...

    [Chunk 43] (1937 chars):
    Job Submission Web EFIRO
Langkah Job Submission Web EFIRO
1
Login ke web EFIRO
ALELEON Supercomputer.
2
Buka pinned apps...

    [Chunk 44] (411 chars):
    Folder Contents
Atau dengan membuka menu
Edit Files
Kolom
Folder Contents
.
8
Untuk menghapus ruang job dan datanya:
Pil...

    [Chunk 45] (1981 chars):
    NAMD
adalah framework dinamika molekular yang digunakan untuk komputasi biomolekuler skala besar di HPC. NAMD mendukung ...

    [Chunk 46] (1992 chars):
    # -----------------------------------------------------
# Alokasi komputasi SBATCH, input, dan module
# ----------------...

    [Chunk 47] (1971 chars):
    #SBATCH --output=result-%j.txt
# Definisi file untuk menampung output error log
#SBATCH --error=error-%j.txt
# Nama inpu...

    [Chunk 48] (1995 chars):
    Nama Template
Penjelasan
NAMD 2.14 (CPU)
Menjalankan NAMD 2.14 pada CPU
NAMD 2.14 (GPU)
Menjalankan NAMD 2.14 dengan aks...

    [Chunk 49] (1987 chars):
    [
ORCA
]
adalah package ab-inito kimia kuantum yang menyediakan semua metode
electronic structure
seperti
density functi...

    [Chunk 50] (1985 chars):
    %PAL NPROCS 64 END
*
3. Pilihan Menjalankan Komputasi
Pilih sesuai preferensi user:
[ 3A ]
- Batch job
tampilan web
deng...

    [Chunk 51] (1983 chars):
    dan tutup.
Untuk mengaktifkan pembacaan utilisasi cgroup.
3.
Buka menu
Jobs > Active Jobs
4.
Bila belum, ganti mode
All ...

    [Chunk 52] (1983 chars):
    # --------------------------------------------------
# ------ Spesifikasi reservasi job (SBATCH) --------
# Terdapat ren...

    [Chunk 53] (1769 chars):
    -> output terminal
error-
jobID
.txt
-> log status job
Monitor Sausage -
Jalankan sausage:
$
sausage
1. Menu
sausage
: K...

    [Chunk 54] (1999 chars):
    HOL'UP! Halaman ini bersifat LEGACY untuk ALELEON Mk.III (saat ini sudah Mk.V).
Kebijakan keamanan ALELEON Supercomputer...

    [Chunk 55] (1899 chars):
    Ikuti langkah berikut untuk menambah dan mengaktifkan profil OVPN sesuai perangkat user masing-masing:
Langkah untuk use...

    [Chunk 56] (395 chars):
    Jangan tutup terminal ini supaya koneksi OVPN tetap berjalan.
- / 4 / -
Untuk menutup koneksi VPN lakukan
ctlr + C
pada ...

    [Chunk 57] (1982 chars):
    COMCOT (Cornell Multi-grid Coupled Tsunami Grid)
adalah software pemodelan tsunami yang menggunakan metode
Shallow Water...

    [Chunk 58] (1990 chars):
    #SBATCH --ntasks=////
# Alokasi jumlah memori RAM (satuan GB)
#SBATCH --mem=////GB
# Alokasi limit waktu menjalankan job...

    [Chunk 59] (1923 chars):
    Job Composer
di homepage EFIRO.
Pilih menu
New Job
->
From Template
3
Pilih template COMCOT yang diinginkan:
Nama Templa...

    [Chunk 60] (294 chars):
    Pilih ruang job yang akan dihapus.
Klik menu
Delete
Pelaporan Kendala dan Support
Apabila menjumpai masalah teknis dalam...

    [Chunk 61] (1986 chars):
    [
PHASE/0
]
adalah program untuk menghitung struktur elektronik yang berbasis DFT (density functional theory) dan skema ...

    [Chunk 62] (1963 chars):
    c.
Klik
[Save]
untuk menyimpan script.
Info lengkap submit script lihat
[
Submit Script ALELEON
]
.
(5)
Jalankan job den...

    [Chunk 63] (1988 chars):
    ]
Panduan ini mengasumsikan user dapat menggunakan terminal Linux.
(1)
Buka terminal ALELEON dengan opsi:
[
Login SSH
];...

    [Chunk 64] (1992 chars):
    # Memuat modul Lmod PHASE/0
# Daftar nama dan info modul lihat subbab 1
module load PHASE0////
# Input binary untuk menj...

    [Chunk 65] (844 chars):
    - job ditahan oleh tim admin.
Notifikasi dan alasan dikabarkan via email support.
Bila user merasa job gagal berjalan:
J...

    [Chunk 66] (2106 chars):
    Daftar isi
1
Deskripsi
2
Mengatur Direktori Instalasi Software
3
Melihat Daftar Software yang Tersedia dari EasyConfig
4...

    [Chunk 67] (1952 chars):
    Halaman ini menjelaskan teknis menjalankan program
MPI
di ALELEON Supercomputer secara
[
batch job
]
melalui
[
submit sc...

    [Chunk 68] (1991 chars):
    Mencakup berbagai kombinasi SBATCH yang berhubungan dengan alokasi CPU contoh
ntasks
*
cpus-per-task
,
nodes
*
ntasks-pe...

    [Chunk 69] (1927 chars):
    192 proses MPI menggunakan 2 node.
User mengisi SBATCH mem sebesar = 400GB / 2 =
200GB
`
3.3. Opsi Skenario Menjalankan ...

    [Chunk 70] (573 chars):
    # Lihat penjelasan di bawah, sesuaikan dengan jenis OMP
# Perintah menjalankan program MPI
# $SLURM_NTASKS mewakili ntas...

    [Chunk 71] (333 chars):
    # Threading OMP
AMD BLIS
(BLAS-like Library Instantiation Software)
export BLIS_JC_NT=1
export BLIS_IC_NT=${SLURM_CPUS_P...

    [Chunk 72] (1994 chars):
    # Threading OMP
Intel MKL
(Math Kernel Library)
threads=${SLURM_CPUS_PER_TASK}
export OMP_NUM_THREADS=${threads}
export ...

    [Chunk 73] (1988 chars):
    Selain Pure MPI, user juga dapat menjalankan program hybrid MPI/OMP secara multi-node manual dengan catatan:
SBATCH
cpus...

    [Chunk 74] (1888 chars):
    # Partisi GPU
#SBATCH --partition=ampere
# Alokasi jumlah core thread CPU dan jumlah proses MPI
#SBATCH --ntasks=////
# ...

    [Chunk 75] (413 chars):
    EUREKA! adalah
program sponsorship layanan gratis penggunaan ALELEON Superkomputer
bagi Warga Negara Indonesia yang seda...

    [Chunk 76] (2044 chars):
    EUREKA! Periode 2 adalah instalasi kedua dari
EUREKA!
yaitu program sponsorship layanan gratis penggunaan ALELEON bagi W...

    [Chunk 77] (1875 chars):
    Halaman ini bagian dari:
[
Tutorial Menggunakan ALELEON Mk.V
]
Halaman ini merangkum daftar software komputasi dan tutor...

    [Chunk 78] (1967 chars):
    [
CP2K
]
adalah package untuk
quantum chemistry
dan
solid state physics
yang dapat melakukan simulasi liquid, molekolar,...

    [Chunk 79] (1991 chars):
    Job Name
dan klik
[Create New Job]
3
Siapkan file komputasi yang dibutuhkan di ruang job ini:
Upload / edit file di menu...

    [Chunk 80] (1986 chars):
    Completed
- job selesai.
User dapat menjalankan ulang job dengan klik
[Submit]
Failed
- job berhenti karena error atau d...

    [Chunk 81] (1998 chars):
    #    User dapat mengubah bagian yang perlu diubah.
# -----------------------------------------------------
# -----------...

    [Chunk 82] (1988 chars):
    # -----------------------------------------------------
# Partisi GPU
#SBATCH --partition=ampere
# Jumlah core thread CP...

    [Chunk 83] (1537 chars):
    Bila belum, ganti mode
All Jobs
ke
Your Jobs
Klik tombol
>
pada job user yang akan dipantau
Pembacaan utilisasi CPU dan ...

    [Chunk 84] (30 chars):
    SPECFEM3D adalah software .......

    [Chunk 85] (1990 chars):
    Ini adalah panduan spesifik bagi user group gxn untuk menggunakan ALELEON Supercomputer.
- Daftar isi -
Login dan Akun A...

    [Chunk 86] (1994 chars):
    Online Documentation:
wiki ALELEON ini.
Change HPC Password:
lihat
[
EAM - Mengganti Password
]
.
Submit Support Ticket:...

    [Chunk 87] (1975 chars):
    4. Pilihan Menjalankan Komputasi
Berikut opsi yang dapat dipilih sesuai kebutuhan dan preferensi user.
Pengenalan piliha...

    [Chunk 88] (1992 chars):
    Kolom
Folder Contents
Kolom
Folder Contents
Atau menu
[Edit Files]
Bila mengikuti template, Slurm menghasilkan output:
r...

    [Chunk 89] (1999 chars):
    Buat script dengan format
.sh
Nama bebas, contoh
submit.sh
Lengkapi script dengan contoh template di bawah ini.
Versi sa...

    [Chunk 90] (1993 chars):
    export
OMP_NUM_THREADS
=
$SLURM_CPUS_PER_TASK
# Perintah menjalankan FLACS-CFD
fgc - ////
run_runflacs version _omp ////...

    [Chunk 91] (1979 chars):
    # Daftar modul lihat subbab "Modul FLACS-CFD" di atas
module load flacs-cfd////
# FLACS CS INPUT FILES WITH WILDCARD. Ex...

    [Chunk 92] (1978 chars):
    - Output job -
Gunakan perintah seperti:
ls
,
cat
,
more
,
tail
, dll
Bila mengikuti template, Slurm menghasilkan output...

    [Chunk 93] (849 chars):
    ---
Ketentuan support:
Respon cepat pada hari / jam kerja EFISON -> Senin - Jumat, 09.00 - 17.30 WIB.
Hari libur -> Sabt...

    [Chunk 94] (1023 chars):
    # export OMP thread dan jalankan FLACS-CFD versi OMP
export OMP_NUM_THREADS=$SLURM_CPUS_PER_TASK
run_runflacs version _o...

    [Chunk 95] (1989 chars):
    [
LAMMPS
]
(Large-scale Atomic/Molecular Massively Parallel Simulator)
adalah framework molekular dinamik untuk pemodela...

    [Chunk 96] (1991 chars):
    [Edit Files]
Dapat upload / download / manajemen / edit file.
Limit upload 100MB per file
Bila lebih gunakan
[
Aplikasi ...

    [Chunk 97] (1978 chars):
    Bila user merasa job gagal berjalan:
Job tertahan
(status Queue)
dalam waktu lama -> lihat
[
Troubleshooting 1
]
Komputa...

    [Chunk 98] (1961 chars):
    # Spesifikasi job (SBATCH)
# -----------------------------------------------------
# Jumlah core thread CPU, minimal 2
#...

    [Chunk 99] (1985 chars):
    #SBATCH --gpus=////
# Jumlah memori RAM (satuan GB)
#SBATCH --mem=////GB
# Limit waktu job (HH:MM:SS atau D-HH:MM:SS)
# ...

    [Chunk 100] (1322 chars):
    Bila butuh job berhenti ...
jalankan perintah:
$
scancel
[job-ID]
- Job ID ada pada squeue diatas.
contoh membatalkan jo...

    [Chunk 101] (1985 chars):
    DFTB+
adalah software package yang versatil untuk simulasi
mechanical quantum
. DFTB+ merupakan software tidak berbayar ...

    [Chunk 102] (1946 chars):
    #SBATCH --ntasks
-> mewakili jumlah task MPI
#SBATCH --cpus-per-task
-> mewakili jumlah thread OpenMP
Apabila ingin MPI ...

    [Chunk 103] (1947 chars):
    # -----------------------------------------------------
# -----------------------------------------------------
# Alokas...

    [Chunk 104] (1969 chars):
    Job selesai dan dalam proses clean-up
CA (CANCELED)
Job dibatalkan user
PR (PREEMPETED)
Job dibatalkan admin, alasan dik...

    [Chunk 105] (765 chars):
    Failed
Job berhenti karena error atau di stop user.
Untuk melihat alasan job yang queue:
Buka pinned apps
Active Jobs
di...

    [Chunk 106] (1994 chars):
    [
OpenMX
]
adalah software package untuk simulasi material skala nano berdasarkan DFT (Density Functional Theories), nor...

    [Chunk 107] (1973 chars):
    Limit upload 100MB per file.
Bila lebih gunakan
[
Aplikasi SFTP
]
ke direktori Job Composer.
.
(4)
Isi kolom
submit scri...

    [Chunk 108] (1988 chars):
    Menu
[Edit Files]
Arahkan
[
Aplikasi SFTP
]
ke direktori Job Composer.
.
User dapat menghapus ruang job dan datanya:
Pil...

    [Chunk 109] (1998 chars):
    # > Jumlah memori RAM (satuan GB)
#SBATCH --mem=////GB
# > Total reservasi waktu job
# > Format HH:MM:SS atau D-HH:MM:SS...

    [Chunk 110] (1982 chars):
    Membaca cgroup usage, mean, last, max, min
Bila butuh job berhenti ...
jalankan perintah:
$
scancel
[job-ID]
- Job ID li...

    [Chunk 111] (356 chars):
    ,
isi kedua parameter tersebut:
Contoh 2 proses MPI dan 4 thread OMP per MPI sehingga total memakai 8 core CPU:
- Hybrid...

    [Chunk 112] (1929 chars):
    Berikut adalah daftar publikasi dari pengguna yang menyertakan kredit (
acknowledge
) akan sistem ALELEON Supercomputer....

    [Chunk 113] (1987 chars):
    Defect formation energies of Ag- and Sr-doped 3C-SiC: A first-principles study
International Journal of Computational Ma...

    [Chunk 114] (146 chars):
    Density Functional Theory Study of Intermolecular Interactions between Amylum and Cellulose
Indonesia Journal of Chemist...

    [Chunk 115] (1967 chars):
    Per tanggal 3 Februari 2023, ALELEON Supercomputer mengimplementasikan aturan baru berupa
Limitasi Fair Usage (LFU)
yait...

    [Chunk 116] (826 chars):
    Alokasi Komputasi
Limit Maksimal
Akun Perseorangan
Akun Institusi
Akun Uji Coba
Walltime
1
3 hari (72 jam)
Sesuai PKSPIA...

    [Chunk 117] (1270 chars):
    Pada pembacaan status antrian job squeue, tab NODELIST(REASON) dapat memberikan alasan kenapa job terpending. Berikut ad...

    [Chunk 118] (1991 chars):
    Halaman ini menjelaskan langkah menjalankan komputasi Python di ALELEON dengan
conda environment
yang dibuat user.
Pada ...

    [Chunk 119] (1992 chars):
    *)
Terkait Anaconda3 2024.06-1:
Karena banyaknya laporan bug, sementara hindari Anaconda ini.
Bagi user yang membuat con...

    [Chunk 120] (1999 chars):
    nvidia-nccl
.
Perhatikan kelengkapan instalasi package NVIDIA CUDA yang dibutuhkan seperti cuDNN, cuBLAS, cuFFT, dll.
.
...

    [Chunk 121] (1197 chars):
    Conda Environment User (CPU)
Berjalan di
c
ompute node
CPU
Conda Environment User (GPU)
Berjalan dengan akselerasi GPU d...

    [Chunk 122] (1943 chars):
    - Jalankan:
$
pip install --user pyusb
.
(5)
Isi kolom
submit script
untuk menulis alur jalannya job:
a.
Klik
[Open Edit...

    [Chunk 123] (1319 chars):
    .
User dapat menghapus ruang job dan datanya:
Pilih ruang job yang akan dihapus.
Klik
[Delete]
*
5B. Batch Job dengan Sl...

    [Chunk 124] (1970 chars):
    - Jalankan:
$
pip install --user pyusb
.
(4)
Buat
submit script
untuk menulis alur jalannya job:
Format
.sh
dan nama scr...

    [Chunk 125] (1989 chars):
    # Conda environment User (GPU)
# rev.250226
#
# NOTES:
# (1) Isi bagian yang ditandai 4 garing (////).
# (2) Ikuti petun...

    [Chunk 126] (1986 chars):
    result-
jobID
.txt
-> output terminal
error-
jobID
.txt
-> log status job
Monitor Sausage -
Jalankan sausage:
$
sausage
...

    [Chunk 127] (1933 chars):
    Ditentukan pilihan jumlah CPU, GPU, dan sisa Core Hour.
Mengetahui rentang waktu:
1.
Buka menu
Clusters > Aleleon Shell ...

    [Chunk 128] (598 chars):
    Ketika user
keluar saat ada cell jalan
dan kembali masuk:
Bisa jadi cell tsb. tidak menampilkan aktivitas cell.
Lihat st...

    [Chunk 129] (203 chars):
    Saat ini tidak ada teks di halaman ini.
Anda dapat
melakukan pencarian untuk judul halaman ini
di halaman-halaman lain, ...

    [Chunk 130] (1996 chars):
    Halaman ini menjelaskan langkah menjalankan software komputasi user yang dikemas dalam
container image
melalui platform
...

    [Chunk 131] (1993 chars):
    $
apptainer pull docker://
[image-pull-tag]
- Platform shub
$
apptainer pull shub://
[image-pull-tag]
- Platform OCI com...

    [Chunk 132] (1816 chars):
    ~/.pymodules
---
5. Pilihan Menjalankan Komputasi
Pilih sesuai preferensi user:
[ 5A ]
- Batch job
tampilan web
dengan
J...

    [Chunk 133] (1943 chars):
    - Jalankan:
$
pip install --user pyusb
.
(5)
Isi kolom
submit script
untuk menulis alur jalannya job:
a.
Klik
[Open Edit...

    [Chunk 134] (1342 chars):
    .
User dapat menghapus ruang job dan datanya:
Pilih ruang job yang akan dihapus.
Klik
[Delete]
*
5B. Batch Job dengan Sl...

    [Chunk 135] (1994 chars):
    - Jalankan:
$
pip install --user pyusb
.
(4)
Buat
submit script
untuk menulis alur jalannya job:
Format
.sh
dan nama scr...

    [Chunk 136] (1981 chars):
    apprun /bin/bash
<< 'COMMAND'
////
COMMAND
Template submit script -
- versi GPU
Berjalan dengan akselerasi GPU di
comput...

    [Chunk 137] (1998 chars):
    $
sbatch
[nama-submit-script]
- Contoh:
$
sbatch
submit.sh
.
(6)
Pantau status jalannya job dengan perintah
squeue
$
squ...

    [Chunk 138] (1985 chars):
    Sesi Jupyter berjalan di
[
interactive node
]
(1)
Cek apakah image SIF yang akan digunakan punya package Jupyter:
1.
Buk...

    [Chunk 139] (1793 chars):
    $
pyl info
[nama-modul]
3.
Gunakan info pyload:
Apptainer image PATH
-> User provided .sif container
User dapat save set...

    [Chunk 140] (360 chars):
    Halaman ini menjabarkan tutorial pengujian komputasi di ALELEON Supercomputer.
Lihat daftar isi
(bila ada)
untuk menjala...

    [Chunk 141] (2471 chars):
    ALELEON Desktop adalah sesi interaktif virtual desktop berbasiskan Desktop Environment (DE) Linux xfce.
Halaman ini bagi...

    [Chunk 142] (2000 chars):
    Halaman ini menjelaskan opsi dan langkah transfer data (
upload - download file
) ALELEON Supercomputer (Mk.V):
Subbab
[...

    [Chunk 143] (1995 chars):
    Ini adalah panduan
all-in-one
untuk masa uji coba user dengan
kode [A]/6
.
Daftar isi
1
Login ALELEON Supercomputer
2
Sp...

    [Chunk 144] (1976 chars):
    Supaya user dapat melakukan hal serupa apabila membutuhkan membuat conda env lain,
contoh untuk instalasi package yang t...

    [Chunk 145] (1998 chars):
    Menggunakan terminal!
User EFIRO klik app
Aleleon Shell Access
atau menu
Apps > Aleleon Shell Access
---| 1 |---
Muat at...

    [Chunk 146] (1988 chars):
    user keluar (log out) dari ALELEON.
Ketika user keluar dari sesi Jupyter saat ada cell berjalan dan kembali masuk:
Bisa ...

    [Chunk 147] (1971 chars):
    11.8
cuda/11.8-cuDNN8.6.0
12.0
cuda/12.0-cuDNN8.7.0
12.1
cuda/12.1-cuDNN8.8.1
12.3
cuda/12.3-cuDNN8.9.6
12.4
cuda/12.4-c...

    [Chunk 148] (1997 chars):
    Apabila menggunakan conda env selain
'tensor'
:
Ganti isi variabel
CONDA_NAME
dengan conda env yang akan dipakai.
#!/bin...

    [Chunk 149] (1976 chars):
    ]
Apabila butuh
, isi nama modul CUDA sebagai berikut:
...
module load ${PM}
module load [Nama-modul-CUDA]
...
Perhatika...

    [Chunk 150] (1991 chars):
    # Modul NVIDIA CUDA telah tersedia di conda env tensor
module load
${
PM
}
# Mengaktifkan Conda Environment
source
activ...

    [Chunk 151] (1991 chars):
    Job ID ada pada squeue diatas.
contoh membatalkan job ID 231:
$
scancel 231
---
- Langkah Batch Job di web EFIRO -
---| ...

    [Chunk 152] (1936 chars):
    ...
Detail Submit Script lihat
[
Subm
it Script ALELEON Supercomputer
]
Untuk SBATCH notifikasi email status jalannya jo...

    [Chunk 153] (1995 chars):
    [
interactive node
].
(klik expand / kembangkan)
- Langkah Sesi Jupyter -
---| 1 |---
[
Login ke web EFIRO
]
ALELEON Sup...

    [Chunk 154] (1646 chars):
    Additional Jupyter arguments
Memuat argumen tambahan Jupyter,
isi apabila ada
.
Email address
Notifikasi email untuk sta...

    [Chunk 155] (1993 chars):
    Halaman ini membahas langkah troubleshooting dan support masalah user di ALELEON Supercomputer.
- Pilih sesuai masalah y...

    [Chunk 156] (1992 chars):
    File output program lainnya yang ada pesan error.
---
Sesi Interaktif Jupyter -
Bagi user yang pilih
Choose package to r...

    [Chunk 157] (1980 chars):
    AssocMaxWallDurationPerJobLimit
Job tidak dapat berjalan karena alokasi
limit waktu
job melebihi walltime maksimum compu...

    [Chunk 158] (1956 chars):
    SBATCH
Fair Limit
ntasks
ntasks * cpus-per-task
CPU
mem
Memory
gpus
GPU
time
Time limit
Bila
tidak ada yang lebih
:
Tida...

    [Chunk 159] (595 chars):
    User harus menambah kuota core hour.
Langkah dan ketentuan lihat
[
Ketentuan dan Transaksi Kuota Core Hour
]
`
Bila
ada
...

    [Chunk 160] (1996 chars):
    ALELEON Mk.V
adalah kelanjutan ALELEON Supercomputer Mk.III dengan platform EFIRO v2 yang sepenuhnya operasional Oktober...

    [Chunk 161] (1249 chars):
    belum dapat digunakan.
Untuk keperluan support dan bantuan hubungi admin di:
support@efisonlt.com
---
Login SSH / Akses ...

    [Chunk 162] (1863 chars):
    Halaman ini bagian dari:
[
Tutorial Menggunakan ALELEON Mk.V
]
Halaman ini memandu login pertama kali di ALELEON Superco...

    [Chunk 163] (1984 chars):
    EFIRO Account Manager
<
EAM
>
adalah portal web untuk manajemen info akun dan password user ALELEON Supercomputer
.
Hala...

    [Chunk 164] (1086 chars):
    Masukkan kode one-time code dari app authenticator.
Isi Device Name untuk identitas perangkat mobile user.
Klik
[Submit]...

    [Chunk 165] (1954 chars):
    Halaman ini adalah
pengantar
bagi user yang pertama kali mengenal dan membuat SSH Key.
Halaman ini bagian dari:
[
Login ...

    [Chunk 166] (823 chars):
    Private key
Private key adalah "password email user".
TIDAK BOLEH DIBAGIKAN KE PIHAK LUAR.
---
`
Private Key itu ...
TID...

    [Chunk 167] (1988 chars):
    Halaman ini bagian dari:
[
Daftar Software Komputasi dan Tutorial
]
ALELEON memberlakukan serangkaian aturan metrik peng...

    [Chunk 168] (1999 chars):
    Ketika
tidak ada job jalan
, Effective Core Hour Remaining =
sisa kuota Actual Core Hour.
Bila ada
job jalan
, Effective...

    [Chunk 169] (1971 chars):
    , dengan detail:
Ketika
tidak ada job jalan
:
Kebutuhan core hour job
>
sisa kuota
Actual
Core Hour
Ketika
ada job jalan...

    [Chunk 170] (797 chars):
    Software
MPI
- dapat memanfaatkan alokasi komputasi
multi-node
.
Software
non-MPI
- hanya dapat berjalan di
satu node
.
...

    [Chunk 171] (203 chars):
    Saat ini tidak ada teks di halaman ini.
Anda dapat
melakukan pencarian untuk judul halaman ini
di halaman-halaman lain, ...

    [Chunk 172] (1932 chars):
    Halaman ini merangkum pengenalan budaya menggunakan ALELEON Supercomputer
(dan superkomputer publik pada umumnya)
.
Hala...

    [Chunk 173] (1309 chars):
    Pada ALELEON, user nantinya akan dipandu deng
an info
[
Sausage dan Aturan Metrik Penggunaan ALELEON
]
---
Setelah konfi...

    [Chunk 174] (1970 chars):
    Halaman ini menjelaskan
konsep menjalankan komputasi
di ALELEON yaitu manajemen Slurm, batch Job, dan sesi interaktif.
M...

    [Chunk 175] (1831 chars):
    User mengisi "formulir" untuk memulai sesi interaktif.
Slurm membuka akses ke compute node untuk sesi interaktif user.
D...

    [Chunk 176] (2000 chars):
    Halaman ini ditujukan bagi
user ALELEON Mk.III (dan Mk.II)
untuk pengumuman dan teknis perpindahan akun dan data ke sist...

    [Chunk 177] (1952 chars):
    support@efisonlt.com
`
1. Backup Data Akun Mk.III
Silahkan Backup data user di akun Mk.III yang dibutuhkan dengan langka...

    [Chunk 178] (1935 chars):
    Lakukan proses download (backup) data
---
Bagi user yang hendak backup data job komputasi yang dijalankan via web EFIRO ...

    [Chunk 179] (584 chars):
    Spesifikasi besar dan limit alokasi komputasi dijelaskan di halaman
[
Sausage dan Aturan Metrik Penggunaan ALELEON
]
Men...

    [Chunk 180] (1985 chars):
    Ini adalah panduan spesifik bagi grup user
AMK
untuk menggunakan ALELEON Supercomputer.
- Daftar isi -
Login
Pengenalan ...

    [Chunk 181] (645 chars):
    .
2.
Lakukan konversi ke file Python:
$
jupytext --to py
[file-ipynb-user]
---
Contoh konversi file Notebook
wololo.ipyn...

    [Chunk 182] (1994 chars):
    ---
Jalankan:
$
pip install --user pyusb
Ketentuan instalasi package:
User tidak dapat update package bawaan environment...

    [Chunk 183] (1982 chars):
    ]
Komputasi error atau berjalan tidak semestinya -> lihat
[
Troubleshooting 2
]
.
E9.
User dapat download file output vi...

    [Chunk 184] (909 chars):
    User keluar dari sesi Jupyter.
User log out dari EFIRO Web Service.
User dapat kembali masuk ke sesi Jupyter sedang jala...

    [Chunk 185] (2000 chars):
    Halaman ini bagian dari:
[
Tutorial ALELEON Supercomputer Mk.V
]
Halaman ini memandu login SSH dan aplikasi SFTP ke ALEL...

    [Chunk 186] (1980 chars):
    [
Reg
istrasi SSH Key ALELEON
]
1.
Unduh package XQuartz di
[
xquartz.org
]
dan instal.
2.
Login SSH di terminal dengan ...

    [Chunk 187] (1088 chars):
    Pilih Login Type
Key File
Input nama username user
Browse file private key pasangan pub key terdaftar.
Klik
[Connect]
Ti...

    [Chunk 188] (1992 chars):
    [
SIESTA
]
, dikembangkan oleh MaX Centre of Excellence, adalah metode dan framework untuk kalkulasi
electronic structur...

    [Chunk 189] (1996 chars):
    [
Submit Script ALELEON
]
.
(5)
Jalankan job dengan klik
[Submit]
.
(6)
Pantau status dan output job:
Refresh halaman Jo...

    [Chunk 190] (1990 chars):
    [
Login SSH
];
atau
Login
[
EFIRO Web Service
]
, menu
Clusters > Aleleon Shell Access
.
(2)
Upload / siapkan file kompu...

    [Chunk 191] (1999 chars):
    ml load SIESTA////
# Input file
INPUT_FILE
=
"////.fdf"
# Output file
OUTPUT_FILE
=
"////"
# Perintah menjalankan SIESTA...

    [Chunk 192] (725 chars):
    Job tertahan
(state
PENDING
)
dalam waktu lama -> lihat
[
Troubleshooting 1
]
Komputasi error atau berjalan tidak semest...

    [Chunk 193] (1969 chars):
    Ini adalah panduan spesifik bagi user group ajft untuk menggunakan ALELEON Supercomputer.
- Daftar Isi -
Login dan Akun ...

    [Chunk 194] (1990 chars):
    Online Documentation:
wiki ALELEON ini.
Change HPC Password:
lihat
[
EAM - Mengganti Password
]
.
Submit Support Ticket:...

    [Chunk 195] (1978 chars):
    # Limit waktu job (HH:MM:SS atau D-HH:MM:SS)
# ex: 1 hari -> 24:00:00 atau 1-00:00:00
#SBATCH --time=////
# File output ...

    [Chunk 196] (1986 chars):
    \
-pbc nojump -center
printf
"Backbone\nBackbone\n"
|
gmx_mpi rms -s md_40.tpr
\
-f md_center_200ns.xtc -o rmsd_200ns.xv...

    [Chunk 197] (1953 chars):
    # Memuat modul software GROMACS versi GPU
module load gromacs/2025.3-gcc-13.4.0-cuda-12.9.0-pue
# Threading OMP
export
O...

    [Chunk 198] (1994 chars):
    printf
"Protein\nSystem\n"
|
gmx_mpi trjconv -s md_40.tpr
\
-f md_full_200ns.xtc -o md_center_200ns.xtc
\
-pbc nojump -c...

    [Chunk 199] (1992 chars):
    SBATCH untuk notifikasi email status job lihat
[
Slurm Jojo
]
Info lengkap submit script lihat
[
Submit Script ALELEON
]...

    [Chunk 200] (1977 chars):
    Tutorial ini mengasumsikan user dapat menggunakan CLI.
1
Akses / buka terminal ALELEON dengan opsi:
[
Login SSH
];
atau
...

    [Chunk 201] (1629 chars):
    dan tutup
Hanya untuk mengaktifkan pembacaan utilisasi cgroup.
Buka menu
Jobs > Active Jobs
Bila belum, ganti mode
All J...

    [Chunk 202] (547 chars):
    Maaf, halaman ini baru saja dihapus (dalam rentang waktu 24 jam).
Log penghapusan, perlindungan, dan pemindahan halaman ...

    [Chunk 203] (203 chars):
    Saat ini tidak ada teks di halaman ini.
Anda dapat
melakukan pencarian untuk judul halaman ini
di halaman-halaman lain, ...

    [Chunk 204] (1340 chars):
    Halaman ini bagian dari:
[
Daftar Software Komputasi dan Tutorial
]
Halaman ini ditujukan bagi
user yang membawa dan / a...

    [Chunk 205] (1991 chars):
    [
Phono3py
]
adalah package Python untuk kalkulasi
lattice thermal conductivity
suatu material. Phono3py bekerja beririn...

    [Chunk 206] (987 chars):
    Bila lebih gunakan
[
Aplikasi SFTP
]
- arahkan ke direktori Job Composer.
.
E5.
Pada Python, batch job menjalankan file ...

    [Chunk 207] (1959 chars):
    ---
Jalankan:
$
pip install --user pyusb
Ketentuan instalasi package:
User tidak dapat update package bawaan environment...

    [Chunk 208] (1766 chars):
    [Submit]
Failed
- job berhenti karena error atau distop user.
Bila user merasa job gagal berjalan:
Job tertahan
(status ...

    [Chunk 209] (1997 chars):
    ---
Jalankan:
$
pip install --user pyusb
Ketentuan instalasi package:
User tidak dapat update package bawaan environment...

    [Chunk 210] (1995 chars):
    # Lihat Perintah Aktivasi pyload subbab 1
pyload ////
# Input perintah komputasi user
////
# Deaktivasi environment untu...

    [Chunk 211] (1974 chars):
    ]
.
T7.
Untuk download file output, gunakan opsi:
[
Aplikasi SFTP
]
Melalui
[
EWS
],
menu
Files > Home Directory
*
2C. S...

    [Chunk 212] (878 chars):
    User log out dari EFIRO Web Service.
User dapat kembali masuk ke sesi Jupyter sedang jalan via:
menu
My Interactive Sess...

    [Chunk 213] (1991 chars):
    Halaman ini bagian dari:
[
Tutorial ALELEON Supercomputer Mk.V
]
[
Login SSH dan SFTP ALELEON Supercomputer
]
Halaman in...

    [Chunk 214] (1969 chars):
    - Tambahan info -
SSH key tersimpan di direktori
$HOME/.ssh
user
Proses no.1 membuat SSH key:
Private key:
Bila Ed25519 ...

    [Chunk 215] (1574 chars):
    User login: olala001
  First name: Micin
  Last name: Gondes
  Home directory: /share/work_r640/olala001
  Login shell: ...

    [Chunk 216] (1997 chars):
    [
BoltzTraP2
]
adalah implementasi modern berbasis package Python untuk
smoothed Fourier interpolation algorithm
berdasa...

    [Chunk 217] (1618 chars):
    #    ${QE_BIN} -input ${INPUT_FILE}
# Perintah aktivasi payload BoltzTraP2, contoh versi 25.3.1
# Versi lain (bila ada) ...

    [Chunk 218] (1959 chars):
    ---
Jalankan:
$
pip install --user pyusb
Ketentuan instalasi package:
User tidak dapat update package bawaan environment...

    [Chunk 219] (1768 chars):
    [Submit]
Failed
- job berhenti karena error atau distop user.
Bila user merasa job gagal berjalan:
Job tertahan
(status ...

    [Chunk 220] (1997 chars):
    ---
Jalankan:
$
pip install --user pyusb
Ketentuan instalasi package:
User tidak dapat update package bawaan environment...

    [Chunk 221] (1995 chars):
    # Lihat Perintah Aktivasi pyload subbab 1
pyload ////
# Input perintah komputasi user
////
# Deaktivasi environment untu...

    [Chunk 222] (1976 chars):
    ]
.
T7.
Untuk download file output, gunakan opsi:
[
Aplikasi SFTP
]
Melalui
[
EWS
],
menu
Files > Home Directory
*
2D. S...

    [Chunk 223] (878 chars):
    User log out dari EFIRO Web Service.
User dapat kembali masuk ke sesi Jupyter sedang jalan via:
menu
My Interactive Sess...

    [Chunk 224] (203 chars):
    Saat ini tidak ada teks di halaman ini.
Anda dapat
melakukan pencarian untuk judul halaman ini
di halaman-halaman lain, ...

    [Chunk 225] (1969 chars):
    [
ACYPE
]
(AnteChamber PYthon Parser InterfacE) adalah package Python berbasis software Antechamber untuk menghasilkan t...

    [Chunk 226] (1142 chars):
    (bebas)
dan klik
[Create New Job]
.
E4.
Siapkan file komputasi via
[Edit Files]
Dapat upload / download / manajemen / ed...

    [Chunk 227] (1959 chars):
    ---
Jalankan:
$
pip install --user pyusb
Ketentuan instalasi package:
User tidak dapat update package bawaan environment...

    [Chunk 228] (1764 chars):
    [Submit]
Failed
- job berhenti karena error atau distop user.
Bila user merasa job gagal berjalan:
Job tertahan
(status ...

    [Chunk 229] (1997 chars):
    ---
Jalankan:
$
pip install --user pyusb
Ketentuan instalasi package:
User tidak dapat update package bawaan environment...

    [Chunk 230] (1995 chars):
    # Lihat Perintah Aktivasi pyload subbab 1
pyload ////
# Input perintah komputasi user
////
# Deaktivasi environment untu...

    [Chunk 231] (1972 chars):
    ]
.
T7.
Untuk download file output, gunakan opsi:
[
Aplikasi SFTP
]
Melalui
[
EWS
],
menu
Files > Home Directory
*
2C. S...

    [Chunk 232] (878 chars):
    User log out dari EFIRO Web Service.
User dapat kembali masuk ke sesi Jupyter sedang jalan via:
menu
My Interactive Sess...

    [Chunk 233] (1995 chars):
    [
gmx_MMPBSA
]
adalah package Python berbasis MMPBSA.py dari AMBER untuk kalkulasi end-state free energy dengan file GRO...

    [Chunk 234] (736 chars):
    .
2.
Lakukan konversi ke file Python:
$
jupytext --to py
[file-ipynb-user]
---
Contoh konversi file Notebook
wololo.ipyn...

    [Chunk 235] (1959 chars):
    ---
Jalankan:
$
pip install --user pyusb
Ketentuan instalasi package:
User tidak dapat update package bawaan environment...

    [Chunk 236] (1768 chars):
    [Submit]
Failed
- job berhenti karena error atau distop user.
Bila user merasa job gagal berjalan:
Job tertahan
(status ...

    [Chunk 237] (1997 chars):
    ---
Jalankan:
$
pip install --user pyusb
Ketentuan instalasi package:
User tidak dapat update package bawaan environment...

    [Chunk 238] (1992 chars):
    # Lihat Perintah Aktivasi pyload subbab 1
pyload ////
# Input perintah komputasi user
# Bila menggunakan MPI (mpirun), g...

    [Chunk 239] (1992 chars):
    [
Troubleshooting 1
]
Komputasi error atau berjalan tidak semestinya -> lihat
[
Troubleshooting 2
]
.
T7.
Untuk download...

    [Chunk 240] (967 chars):
    Termasuk ketika:
Koneksi user terputus saat sesi Jupyter.
User keluar dari sesi Jupyter.
User log out dari EFIRO Web Ser...

    [Chunk 241] (203 chars):
    Saat ini tidak ada teks di halaman ini.
Anda dapat
melakukan pencarian untuk judul halaman ini
di halaman-halaman lain, ...

    [Chunk 242] (1998 chars):
    Update 12 Januari 2026
1. Daftar Instalasi Package AI
Instalasi global per tanggal 12 Januari 2026:
Nama
Perintah Aktiva...

    [Chunk 243] (544 chars):
    $
jupytext --to py
wololo.ipynb
akan menghasilkan file Python
wololo.py
Apakah kebutuhan package Python lengkap? -
1.
Bu...

    [Chunk 244] (1979 chars):
    ---
Jalankan:
$
pip install --user pyusb
Ketentuan instalasi package:
User tidak dapat update package bawaan environment...

    [Chunk 245] (1642 chars):
    Isi waktu maksimal sesi Jupyter
Amount of memory/RAM (GB)
Jumlah memori RAM dalam GB
Use GPU for the job
no
-> tanpa GPU...

    [Chunk 246] (203 chars):
    Saat ini tidak ada teks di halaman ini.
Anda dapat
melakukan pencarian untuk judul halaman ini
di halaman-halaman lain, ...
[3] Load model embedding lokal...
[4] Menyimpan vektor ke database Chroma...
Failed to send telemetry event ClientStartEvent: capture() takes 1 positional argument but 3 were given
Failed to send telemetry event ClientCreateCollectionEvent: capture() takes 1 positional argument but 3 were given

[5] Memuat model Qwen ke GPU menggunakan vLLM...
    (Ini akan memakan waktu untuk alokasi KV Cache di VRAM)
INFO 03-06 04:07:09 [utils.py:229] non-default args: {'trust_remote_code': True, 'dtype': 'float16', 'max_model_len': 4096, 'gpu_memory_utilization': 0.8, 'disable_log_stats': True, 'enforce_eager': True, 'model': 'indonlp/cendol-llama2-7b-inst'}
The argument `trust_remote_code` is to be used with Auto classes. It has no effect here and is ignored.
The argument `trust_remote_code` is to be used with Auto classes. It has no effect here and is ignored.
INFO 03-06 04:07:11 [model.py:532] Resolved architecture: LlamaForCausalLM
WARNING 03-06 04:07:11 [model.py:1896] Casting torch.bfloat16 to torch.float16.
INFO 03-06 04:07:11 [model.py:1556] Using max model len 4096
INFO 03-06 04:07:12 [scheduler.py:231] Chunked prefill is enabled with max_num_batched_tokens=8192.
INFO 03-06 04:07:12 [vllm.py:697] Asynchronous scheduling is enabled.
WARNING 03-06 04:07:12 [vllm.py:731] Enforce eager set, disabling torch.compile and CUDAGraphs. This is equivalent to setting -cc.mode=none -cc.cudagraph_mode=none
WARNING 03-06 04:07:12 [vllm.py:742] Inductor compilation was disabled by user settings, optimizations settings that are only active during inductor compilation will be ignored.
INFO 03-06 04:07:12 [vllm.py:855] Cudagraph is disabled under eager mode
WARNING 03-06 04:07:14 [system_utils.py:140] We must use the `spawn` multiprocessing start method. Overriding VLLM_WORKER_MULTIPROC_METHOD to 'spawn'. See https://docs.vllm.ai/en/latest/usage/troubleshooting.html#python-multiprocessing for more information. Reasons: CUDA is initialized
(EngineCore_DP0 pid=4086) INFO 03-06 04:07:17 [core.py:98] Initializing a V1 LLM engine (v0.16.0rc2.dev409+g596ed1f02) with config: model='indonlp/cendol-llama2-7b-inst', speculative_config=None, tokenizer='indonlp/cendol-llama2-7b-inst', skip_tokenizer_init=False, tokenizer_mode=auto, revision=None, tokenizer_revision=None, trust_remote_code=True, dtype=torch.float16, max_seq_len=4096, download_dir=None, load_format=auto, tensor_parallel_size=1, pipeline_parallel_size=1, data_parallel_size=1, disable_custom_all_reduce=True, quantization=None, enforce_eager=True, enable_return_routed_experts=False, kv_cache_dtype=auto, device_config=cuda, structured_outputs_config=StructuredOutputsConfig(backend='auto', disable_fallback=False, disable_any_whitespace=False, disable_additional_properties=False, reasoning_parser='', reasoning_parser_plugin='', enable_in_reasoning=False), observability_config=ObservabilityConfig(show_hidden_metrics_for_version=None, otlp_traces_endpoint=None, collect_detailed_traces=None, kv_cache_metrics=False, kv_cache_metrics_sample=0.01, cudagraph_metrics=False, enable_layerwise_nvtx_tracing=False, enable_mfu_metrics=False, enable_mm_processor_stats=False, enable_logging_iteration_details=False), seed=0, served_model_name=indonlp/cendol-llama2-7b-inst, enable_prefix_caching=True, enable_chunked_prefill=True, pooler_config=None, compilation_config={'level': None, 'mode': <CompilationMode.NONE: 0>, 'debug_dump_path': None, 'cache_dir': '', 'compile_cache_save_format': 'binary', 'backend': 'inductor', 'custom_ops': ['all', '+sparse_attn_indexer'], 'splitting_ops': [], 'compile_mm_encoder': False, 'compile_sizes': [], 'compile_ranges_split_points': [8192], 'inductor_compile_config': {'enable_auto_functionalized_v2': False, 'combo_kernels': True, 'benchmark_combo_kernel': True}, 'inductor_passes': {}, 'cudagraph_mode': <CUDAGraphMode.NONE: 0>, 'cudagraph_num_of_warmups': 0, 'cudagraph_capture_sizes': [], 'cudagraph_copy_inputs': False, 'cudagraph_specialize_lora': True, 'use_inductor_graph_partition': False, 'pass_config': {'fuse_norm_quant': True, 'fuse_act_quant': True, 'fuse_attn_quant': False, 'enable_sp': False, 'fuse_gemm_comms': False, 'fuse_allreduce_rms': False, 'fuse_act_padding': False}, 'max_cudagraph_capture_size': 0, 'dynamic_shapes_config': {'type': <DynamicShapesType.BACKED: 'backed'>, 'evaluate_guards': False, 'assume_32_bit_indexing': False}, 'local_cache_dir': None, 'fast_moe_cold_start': True, 'static_all_moe_layers': []}
(EngineCore_DP0 pid=4086) WARNING 03-06 04:07:17 [gpt_oss_triton_kernels_moe.py:55] Using legacy triton_kernels on ROCm
(EngineCore_DP0 pid=4086) INFO 03-06 04:07:17 [parallel_state.py:1307] world_size=1 rank=0 local_rank=0 distributed_init_method=tcp://172.16.1.36:35233 backend=nccl
(EngineCore_DP0 pid=4086) INFO 03-06 04:07:17 [parallel_state.py:1535] rank 0 in world size 1 is assigned as DP rank 0, PP rank 0, PCP rank 0, TP rank 0, EP rank N/A, EPLB rank N/A
(EngineCore_DP0 pid=4086) INFO 03-06 04:07:18 [gpu_model_runner.py:4139] Starting to load model indonlp/cendol-llama2-7b-inst...
(EngineCore_DP0 pid=4086) INFO 03-06 04:07:18 [rocm.py:372] Using Triton Attention backend.
(EngineCore_DP0 pid=4086) WARNING 03-06 04:07:18 [compilation.py:1095] Op 'sparse_attn_indexer' not present in model, enabling with '+sparse_attn_indexer' has no effect
(EngineCore_DP0 pid=4086) Loading pt checkpoint shards:   0% Completed | 0/2 [00:00<?, ?it/s]
(EngineCore_DP0 pid=4086) Loading pt checkpoint shards:  50% Completed | 1/2 [00:01<00:01,  1.22s/it]
(EngineCore_DP0 pid=4086) Loading pt checkpoint shards: 100% Completed | 2/2 [00:04<00:00,  2.55s/it]
(EngineCore_DP0 pid=4086) Loading pt checkpoint shards: 100% Completed | 2/2 [00:04<00:00,  2.35s/it]
(EngineCore_DP0 pid=4086) 
(EngineCore_DP0 pid=4086) INFO 03-06 04:07:24 [default_loader.py:293] Loading weights took 4.70 seconds
(EngineCore_DP0 pid=4086) INFO 03-06 04:07:24 [gpu_model_runner.py:4236] Model loading took 12.61 GiB memory and 6.156807 seconds
(EngineCore_DP0 pid=4086) INFO 03-06 04:07:27 [gpu_worker.py:405] Available KV cache memory: 11.69 GiB
(EngineCore_DP0 pid=4086) INFO 03-06 04:07:27 [kv_cache_utils.py:1314] GPU KV cache size: 23,936 tokens
(EngineCore_DP0 pid=4086) INFO 03-06 04:07:27 [kv_cache_utils.py:1319] Maximum concurrency for 4,096 tokens per request: 5.84x
(EngineCore_DP0 pid=4086) INFO 03-06 04:07:27 [core.py:278] init engine (profile, create kv cache, warmup model) took 2.60 seconds
(EngineCore_DP0 pid=4086) INFO 03-06 04:07:28 [vllm.py:697] Asynchronous scheduling is enabled.
(EngineCore_DP0 pid=4086) WARNING 03-06 04:07:28 [vllm.py:731] Enforce eager set, disabling torch.compile and CUDAGraphs. This is equivalent to setting -cc.mode=none -cc.cudagraph_mode=none
(EngineCore_DP0 pid=4086) WARNING 03-06 04:07:28 [vllm.py:742] Inductor compilation was disabled by user settings, optimizations settings that are only active during inductor compilation will be ignored.
(EngineCore_DP0 pid=4086) INFO 03-06 04:07:28 [vllm.py:855] Cudagraph is disabled under eager mode
INFO 03-06 04:07:28 [llm.py:361] Supported tasks: ['generate']

============================================================
[Q1/197] Apa itu ALELEON Supercomputer?
------------------------------------------------------------
[2026-03-06 04:07:28] ERROR posthog.py:61: Failed to send telemetry event CollectionQueryEvent: capture() takes 1 positional argument but 3 were given
Rendering prompts:   0%|          | 0/1 [00:00<?, ?it/s]Rendering prompts: 100%|██████████| 1/1 [00:00<00:00, 125.08it/s]
Processed prompts:   0%|          | 0/1 [00:00<?, ?it/s, est. speed input: 0.00 toks/s, output: 0.00 toks/s]Processed prompts: 100%|██████████| 1/1 [00:02<00:00,  2.07s/it, est. speed input: 990.08 toks/s, output: 15.91 toks/s]Processed prompts: 100%|██████████| 1/1 [00:02<00:00,  2.07s/it, est. speed input: 990.08 toks/s, output: 15.91 toks/s]Processed prompts: 100%|██████████| 1/1 [00:02<00:00,  2.07s/it, est. speed input: 990.08 toks/s, output: 15.91 toks/s]
1x AMD Threadripper 3955WX, 16 core / 32 thread, 3.9Ghz

    📚 Sumber (2 chunks):
    • ALELEON Supercomputer  (https://wiki.efisonlt.com/wiki/ALELEON_Supercomputer)
    • Spesifikasi ALELEON Supercomputer  (https://wiki.efisonlt.com/wiki/Spesifikasi_ALELEON_Supercomputer)

============================================================
[Q2/197] Apa email support admin ALELEON?
------------------------------------------------------------
Rendering prompts:   0%|          | 0/1 [00:00<?, ?it/s]Rendering prompts: 100%|██████████| 1/1 [00:00<00:00, 819.04it/s]
Processed prompts:   0%|          | 0/1 [00:00<?, ?it/s, est. speed input: 0.00 toks/s, output: 0.00 toks/s]Processed prompts: 100%|██████████| 1/1 [00:01<00:00,  1.33s/it, est. speed input: 1445.54 toks/s, output: 27.05 toks/s]Processed prompts: 100%|██████████| 1/1 [00:01<00:00,  1.33s/it, est. speed input: 1445.54 toks/s, output: 27.05 toks/s]Processed prompts: 100%|██████████| 1/1 [00:01<00:00,  1.33s/it, est. speed input: 1445.54 toks/s, output: 27.05 toks/s]
Ini adalah layanan superkomputer publik pertama kali yang sepenuhnya operasional Oktober 2025.

    📚 Sumber (2 chunks):
    • ALELEON Supercomputer  (https://wiki.efisonlt.com/wiki/ALELEON_Supercomputer)
    • Tutorial Menggunakan ALELEON Supercomputer Mk.V  (https://wiki.efisonlt.com/wiki/Tutorial_Menggunakan_ALELEON_Supercomputer_Mk.V)

============================================================
[Q3/197] Jam kerja support EFISON kapan?
------------------------------------------------------------
Rendering prompts:   0%|          | 0/1 [00:00<?, ?it/s]Rendering prompts: 100%|██████████| 1/1 [00:00<00:00, 1033.59it/s]
Processed prompts:   0%|          | 0/1 [00:00<?, ?it/s, est. speed input: 0.00 toks/s, output: 0.00 toks/s]Processed prompts: 100%|██████████| 1/1 [00:00<00:00,  4.28it/s, est. speed input: 6092.47 toks/s, output: 21.39 toks/s]Processed prompts: 100%|██████████| 1/1 [00:00<00:00,  4.28it/s, est. speed input: 6092.47 toks/s, output: 21.39 toks/s]Processed prompts: 100%|██████████| 1/1 [00:00<00:00,  4.28it/s, est. speed input: 6092.47 toks/s, output: 21.39 toks/s]
Ketika user

    📚 Sumber (2 chunks):
    • Komputasi Python dengan Conda Environment User  (https://wiki.efisonlt.com/wiki/Komputasi_Python_dengan_Conda_Environment_User)
    • SIESTA  (https://wiki.efisonlt.com/wiki/SIESTA)

============================================================
[Q4/197] ALELEON Mk.V menggunakan platform apa?
------------------------------------------------------------
Rendering prompts:   0%|          | 0/1 [00:00<?, ?it/s]Rendering prompts: 100%|██████████| 1/1 [00:00<00:00, 935.60it/s]
Processed prompts:   0%|          | 0/1 [00:00<?, ?it/s, est. speed input: 0.00 toks/s, output: 0.00 toks/s]Processed prompts: 100%|██████████| 1/1 [00:01<00:00,  1.50s/it, est. speed input: 1373.22 toks/s, output: 25.95 toks/s]Processed prompts: 100%|██████████| 1/1 [00:01<00:00,  1.50s/it, est. speed input: 1373.22 toks/s, output: 25.95 toks/s]Processed prompts: 100%|██████████| 1/1 [00:01<00:00,  1.50s/it, est. speed input: 1373.22 toks/s, output: 25.95 toks/s]
1. Backup Data Akun Mk.III Silahkan Backup data user di akun Mk.III yang dibutuhkan dengan langkah: Sub

    📚 Sumber (2 chunks):
    • Migrasi Akun dan Data Mk.III ke Mk.V  (https://wiki.efisonlt.com/wiki/Migrasi_Akun_dan_Data_Mk.III_ke_Mk.V)

============================================================
[Q5/197] Sistem operasi apa yang digunakan ALELEON?
------------------------------------------------------------
Rendering prompts:   0%|          | 0/1 [00:00<?, ?it/s]Rendering prompts: 100%|██████████| 1/1 [00:00<00:00, 966.21it/s]
Processed prompts:   0%|          | 0/1 [00:00<?, ?it/s, est. speed input: 0.00 toks/s, output: 0.00 toks/s]Processed prompts: 100%|██████████| 1/1 [00:00<00:00,  1.80it/s, est. speed input: 3522.54 toks/s, output: 23.42 toks/s]Processed prompts: 100%|██████████| 1/1 [00:00<00:00,  1.80it/s, est. speed input: 3522.54 toks/s, output: 23.42 toks/s]Processed prompts: 100%|██████████| 1/1 [00:00<00:00,  1.80it/s, est. speed input: 3522.54 toks/s, output: 23.42 toks/s]
1. Susunan ALELEON Supercomputer

    📚 Sumber (2 chunks):
    • ALELEON Supercomputer  (https://wiki.efisonlt.com/wiki/ALELEON_Supercomputer)
    • Pengenalan Menggunakan ALELEON Supercomputer  (https://wiki.efisonlt.com/wiki/Pengenalan_Menggunakan_ALELEON_Supercomputer)

============================================================
[Q6/197] Versi Slurm yang digunakan ALELEON berapa?
------------------------------------------------------------
Rendering prompts:   0%|          | 0/1 [00:00<?, ?it/s]Rendering prompts: 100%|██████████| 1/1 [00:00<00:00, 892.98it/s]
Processed prompts:   0%|          | 0/1 [00:00<?, ?it/s, est. speed input: 0.00 toks/s, output: 0.00 toks/s]Processed prompts: 100%|██████████| 1/1 [00:00<00:00,  2.16it/s, est. speed input: 4691.17 toks/s, output: 17.31 toks/s]Processed prompts: 100%|██████████| 1/1 [00:00<00:00,  2.16it/s, est. speed input: 4691.17 toks/s, output: 17.31 toks/s]Processed prompts: 100%|██████████| 1/1 [00:00<00:00,  2.16it/s, est. speed input: 4691.17 toks/s, output: 17.31 toks/s]
1. Manajemen Slurm

    📚 Sumber (2 chunks):
    • Metode Komputasi di ALELEON  (https://wiki.efisonlt.com/wiki/Metode_Komputasi_di_ALELEON)
    • Pengenalan Menggunakan ALELEON Supercomputer  (https://wiki.efisonlt.com/wiki/Pengenalan_Menggunakan_ALELEON_Supercomputer)

============================================================
[Q7/197] Apa nama portal web untuk menggunakan ALELEON?
------------------------------------------------------------
Rendering prompts:   0%|          | 0/1 [00:00<?, ?it/s]Rendering prompts: 100%|██████████| 1/1 [00:00<00:00, 985.27it/s]
Processed prompts:   0%|          | 0/1 [00:00<?, ?it/s, est. speed input: 0.00 toks/s, output: 0.00 toks/s]Processed prompts: 100%|██████████| 1/1 [00:01<00:00,  1.35s/it, est. speed input: 1491.86 toks/s, output: 26.75 toks/s]Processed prompts: 100%|██████████| 1/1 [00:01<00:00,  1.35s/it, est. speed input: 1491.86 toks/s, output: 26.75 toks/s]Processed prompts: 100%|██████████| 1/1 [00:01<00:00,  1.35s/it, est. speed input: 1491.86 toks/s, output: 26.75 toks/s]
agar informasi yang diperoleh dari superkomputer dapat dijadikan sebagai informasi yang lebih akurat.

    📚 Sumber (2 chunks):
    • ALELEON Supercomputer  (https://wiki.efisonlt.com/wiki/ALELEON_Supercomputer)
    • SW-GXN  (https://wiki.efisonlt.com/wiki/SW-GXN)

============================================================
[Q8/197] Apa URL untuk login ke EFIRO Web Service?
------------------------------------------------------------
Rendering prompts:   0%|          | 0/1 [00:00<?, ?it/s]Rendering prompts: 100%|██████████| 1/1 [00:00<00:00, 992.50it/s]
Processed prompts:   0%|          | 0/1 [00:00<?, ?it/s, est. speed input: 0.00 toks/s, output: 0.00 toks/s]Processed prompts: 100%|██████████| 1/1 [00:01<00:00,  1.57s/it, est. speed input: 997.34 toks/s, output: 28.00 toks/s]Processed prompts: 100%|██████████| 1/1 [00:01<00:00,  1.57s/it, est. speed input: 997.34 toks/s, output: 28.00 toks/s]Processed prompts: 100%|██████████| 1/1 [00:01<00:00,  1.57s/it, est. speed input: 997.34 toks/s, output: 28.00 toks/s]
ia dapat membalas tiket dan email support diluar jam kerja dan libur dengan waktu respon tidak secepat ketika hari / jam kerja.

    📚 Sumber (2 chunks):
    • ACPYPE  (https://wiki.efisonlt.com/wiki/ACPYPE)
    • Phono3py dan Phonopy  (https://wiki.efisonlt.com/wiki/Phono3py_dan_Phonopy)

============================================================
[Q9/197] Apa itu EFIRO Account Manager?
------------------------------------------------------------
Rendering prompts:   0%|          | 0/1 [00:00<?, ?it/s]Rendering prompts: 100%|██████████| 1/1 [00:00<00:00, 816.49it/s]
Processed prompts:   0%|          | 0/1 [00:00<?, ?it/s, est. speed input: 0.00 toks/s, output: 0.00 toks/s]Processed prompts: 100%|██████████| 1/1 [00:01<00:00,  1.13s/it, est. speed input: 1853.77 toks/s, output: 24.80 toks/s]Processed prompts: 100%|██████████| 1/1 [00:01<00:00,  1.13s/it, est. speed input: 1853.77 toks/s, output: 24.80 toks/s]Processed prompts: 100%|██████████| 1/1 [00:01<00:00,  1.13s/it, est. speed input: 1853.77 toks/s, output: 24.80 toks/s]
Ini adalah portal web untuk manajemen info akun user. user dapat mengganti info:

    📚 Sumber (2 chunks):
    • EFIRO Account Manager  (https://wiki.efisonlt.com/wiki/EFIRO_Account_Manager)
    • Tutorial Menggunakan ALELEON Supercomputer Mk.V  (https://wiki.efisonlt.com/wiki/Tutorial_Menggunakan_ALELEON_Supercomputer_Mk.V)

============================================================
[Q10/197] Bagaimana cara mengganti password akun ALELEON?
------------------------------------------------------------
Rendering prompts:   0%|          | 0/1 [00:00<?, ?it/s]Rendering prompts: 100%|██████████| 1/1 [00:00<00:00, 994.15it/s]
Processed prompts:   0%|          | 0/1 [00:00<?, ?it/s, est. speed input: 0.00 toks/s, output: 0.00 toks/s]Processed prompts: 100%|██████████| 1/1 [00:02<00:00,  2.81s/it, est. speed input: 645.38 toks/s, output: 28.14 toks/s]Processed prompts: 100%|██████████| 1/1 [00:02<00:00,  2.81s/it, est. speed input: 645.38 toks/s, output: 28.14 toks/s]Processed prompts: 100%|██████████| 1/1 [00:02<00:00,  2.81s/it, est. speed input: 645.38 toks/s, output: 28.14 toks/s]
Jika dokumen hanya menyebutkan "profile" atau "profil", maka hanya menggunakan EWS, jika tidak menggunakan EWS tinggal menggunakan terminal. Untuk keperluan support dan bantuan hubungi admin di: support@efisonlt.com

    📚 Sumber (2 chunks):
    • Koneksi VPN ALELEON Supercomputer  (https://wiki.efisonlt.com/wiki/Koneksi_VPN_ALELEON_Supercomputer)
    • Tutorial Menggunakan ALELEON Supercomputer Mk.V  (https://wiki.efisonlt.com/wiki/Tutorial_Menggunakan_ALELEON_Supercomputer_Mk.V)

============================================================
[Q11/197] Berapa jumlah node di partisi epyc?
------------------------------------------------------------
Rendering prompts:   0%|          | 0/1 [00:00<?, ?it/s]Rendering prompts: 100%|██████████| 1/1 [00:00<00:00, 748.45it/s]
Processed prompts:   0%|          | 0/1 [00:00<?, ?it/s, est. speed input: 0.00 toks/s, output: 0.00 toks/s]Processed prompts: 100%|██████████| 1/1 [00:00<00:00,  1.25it/s, est. speed input: 2949.60 toks/s, output: 21.33 toks/s]Processed prompts: 100%|██████████| 1/1 [00:00<00:00,  1.25it/s, est. speed input: 2949.60 toks/s, output: 21.33 toks/s]Processed prompts: 100%|██████████| 1/1 [00:00<00:00,  1.25it/s, est. speed input: 2949.60 toks/s, output: 21.33 toks/s]
3.3. Opsi Skenario Menjalankan MPI CPU

    📚 Sumber (2 chunks):
    • MPI ALELEON Supercomputer  (https://wiki.efisonlt.com/wiki/MPI_ALELEON_Supercomputer)
    • Spesifikasi ALELEON Supercomputer  (https://wiki.efisonlt.com/wiki/Spesifikasi_ALELEON_Supercomputer)

============================================================
[Q12/197] CPU apa yang digunakan di partisi epyc?
------------------------------------------------------------
Rendering prompts:   0%|          | 0/1 [00:00<?, ?it/s]Rendering prompts: 100%|██████████| 1/1 [00:00<00:00, 820.00it/s]
Processed prompts:   0%|          | 0/1 [00:00<?, ?it/s, est. speed input: 0.00 toks/s, output: 0.00 toks/s]Processed prompts: 100%|██████████| 1/1 [00:00<00:00,  2.85it/s, est. speed input: 6699.19 toks/s, output: 11.38 toks/s]Processed prompts: 100%|██████████| 1/1 [00:00<00:00,  2.85it/s, est. speed input: 6699.19 toks/s, output: 11.38 toks/s]Processed prompts: 100%|██████████| 1/1 [00:00<00:00,  2.85it/s, est. speed input: 6699.19 toks/s, output: 11.38 toks/s]
1.1

    📚 Sumber (2 chunks):
    • Spesifikasi ALELEON Supercomputer  (https://wiki.efisonlt.com/wiki/Spesifikasi_ALELEON_Supercomputer)
    • MPI ALELEON Supercomputer  (https://wiki.efisonlt.com/wiki/MPI_ALELEON_Supercomputer)

============================================================
[Q13/197] Berapa RAM efektif per node di partisi epyc?
------------------------------------------------------------
Rendering prompts:   0%|          | 0/1 [00:00<?, ?it/s]Rendering prompts: 100%|██████████| 1/1 [00:00<00:00, 890.51it/s]
Processed prompts:   0%|          | 0/1 [00:00<?, ?it/s, est. speed input: 0.00 toks/s, output: 0.00 toks/s]Processed prompts: 100%|██████████| 1/1 [00:00<00:00,  6.64it/s, est. speed input: 15639.33 toks/s, output: 26.57 toks/s]Processed prompts: 100%|██████████| 1/1 [00:00<00:00,  6.64it/s, est. speed input: 15639.33 toks/s, output: 26.57 toks/s]Processed prompts: 100%|██████████| 1/1 [00:00<00:00,  6.64it/s, est. speed input: 15639.33 toks/s, output: 26.57 toks/s]
1.1

    📚 Sumber (2 chunks):
    • MPI ALELEON Supercomputer  (https://wiki.efisonlt.com/wiki/MPI_ALELEON_Supercomputer)
    • Spesifikasi ALELEON Supercomputer  (https://wiki.efisonlt.com/wiki/Spesifikasi_ALELEON_Supercomputer)

============================================================
[Q14/197] Berapa RAM efektif di partisi epyc-jumbo?
------------------------------------------------------------
Rendering prompts:   0%|          | 0/1 [00:00<?, ?it/s]Rendering prompts: 100%|██████████| 1/1 [00:00<00:00, 901.23it/s]
Processed prompts:   0%|          | 0/1 [00:00<?, ?it/s, est. speed input: 0.00 toks/s, output: 0.00 toks/s]Processed prompts: 100%|██████████| 1/1 [00:00<00:00,  1.67it/s, est. speed input: 3942.02 toks/s, output: 28.44 toks/s]Processed prompts: 100%|██████████| 1/1 [00:00<00:00,  1.67it/s, est. speed input: 3942.02 toks/s, output: 28.44 toks/s]Processed prompts: 100%|██████████| 1/1 [00:00<00:00,  1.67it/s, est. speed input: 3942.02 toks/s, output: 28.44 toks/s]
3.2. Opsi Skenario Menjalankan MPI CPU

    📚 Sumber (2 chunks):
    • MPI ALELEON Supercomputer  (https://wiki.efisonlt.com/wiki/MPI_ALELEON_Supercomputer)
    • Spesifikasi ALELEON Supercomputer  (https://wiki.efisonlt.com/wiki/Spesifikasi_ALELEON_Supercomputer)

============================================================
[Q15/197] GPU apa yang digunakan di partisi ampere?
------------------------------------------------------------
Rendering prompts:   0%|          | 0/1 [00:00<?, ?it/s]Rendering prompts: 100%|██████████| 1/1 [00:00<00:00, 891.46it/s]
Processed prompts:   0%|          | 0/1 [00:00<?, ?it/s, est. speed input: 0.00 toks/s, output: 0.00 toks/s]Processed prompts: 100%|██████████| 1/1 [00:00<00:00,  2.88it/s, est. speed input: 7800.71 toks/s, output: 5.77 toks/s]Processed prompts: 100%|██████████| 1/1 [00:00<00:00,  2.88it/s, est. speed input: 7800.71 toks/s, output: 5.77 toks/s]Processed prompts: 100%|██████████| 1/1 [00:00<00:00,  2.88it/s, est. speed input: 7800.71 toks/s, output: 5.77 toks/s]
system

    📚 Sumber (2 chunks):
    • Katalog Software ALELEON Supercomputer  (https://wiki.efisonlt.com/wiki/Katalog_Software_ALELEON_Supercomputer)
    • SW-AJFT  (https://wiki.efisonlt.com/wiki/SW-AJFT)

============================================================
[Q16/197] Berapa jumlah GPU di compute node ampere?
------------------------------------------------------------
Rendering prompts:   0%|          | 0/1 [00:00<?, ?it/s]Rendering prompts: 100%|██████████| 1/1 [00:00<00:00, 886.93it/s]
Processed prompts:   0%|          | 0/1 [00:00<?, ?it/s, est. speed input: 0.00 toks/s, output: 0.00 toks/s]Processed prompts: 100%|██████████| 1/1 [00:00<00:00,  2.19it/s, est. speed input: 5915.22 toks/s, output: 19.69 toks/s]Processed prompts: 100%|██████████| 1/1 [00:00<00:00,  2.19it/s, est. speed input: 5915.22 toks/s, output: 19.69 toks/s]Processed prompts: 100%|██████████| 1/1 [00:00<00:00,  2.19it/s, est. speed input: 5915.22 toks/s, output: 19.69 toks/s]
4.6. Make dan CMake

    📚 Sumber (2 chunks):
    • Katalog Software ALELEON Supercomputer  (https://wiki.efisonlt.com/wiki/Katalog_Software_ALELEON_Supercomputer)
    • Spesifikasi ALELEON Supercomputer  (https://wiki.efisonlt.com/wiki/Spesifikasi_ALELEON_Supercomputer)

============================================================
[Q17/197] Apa interkoneksi yang digunakan di partisi epyc?
------------------------------------------------------------
Rendering prompts:   0%|          | 0/1 [00:00<?, ?it/s]Rendering prompts: 100%|██████████| 1/1 [00:00<00:00, 879.31it/s]
Processed prompts:   0%|          | 0/1 [00:00<?, ?it/s, est. speed input: 0.00 toks/s, output: 0.00 toks/s]Processed prompts: 100%|██████████| 1/1 [00:00<00:00,  3.91it/s, est. speed input: 8886.74 toks/s, output: 15.62 toks/s]Processed prompts: 100%|██████████| 1/1 [00:00<00:00,  3.91it/s, est. speed input: 8886.74 toks/s, output: 15.62 toks/s]Processed prompts: 100%|██████████| 1/1 [00:00<00:00,  3.90it/s, est. speed input: 8886.74 toks/s, output: 15.62 toks/s]
1.1

    📚 Sumber (2 chunks):
    • Spesifikasi ALELEON Supercomputer  (https://wiki.efisonlt.com/wiki/Spesifikasi_ALELEON_Supercomputer)
    • TRIAL A6  (https://wiki.efisonlt.com/wiki/TRIAL_A6)

============================================================
[Q18/197] Berapa kapasitas hot storage SSD di ALELEON?
------------------------------------------------------------
Rendering prompts:   0%|          | 0/1 [00:00<?, ?it/s]Rendering prompts: 100%|██████████| 1/1 [00:00<00:00, 1020.02it/s]
Processed prompts:   0%|          | 0/1 [00:00<?, ?it/s, est. speed input: 0.00 toks/s, output: 0.00 toks/s]Processed prompts: 100%|██████████| 1/1 [00:00<00:00,  6.64it/s, est. speed input: 13659.24 toks/s, output: 26.56 toks/s]Processed prompts: 100%|██████████| 1/1 [00:00<00:00,  6.64it/s, est. speed input: 13659.24 toks/s, output: 26.56 toks/s]Processed prompts: 100%|██████████| 1/1 [00:00<00:00,  6.63it/s, est. speed input: 13659.24 toks/s, output: 26.56 toks/s]
1.1

    📚 Sumber (2 chunks):
    • ALELEON Supercomputer  (https://wiki.efisonlt.com/wiki/ALELEON_Supercomputer)
    • Spesifikasi ALELEON Supercomputer  (https://wiki.efisonlt.com/wiki/Spesifikasi_ALELEON_Supercomputer)

============================================================
[Q19/197] Berapa kapasitas cold storage HDD di ALELEON?
------------------------------------------------------------
Rendering prompts:   0%|          | 0/1 [00:00<?, ?it/s]Rendering prompts: 100%|██████████| 1/1 [00:00<00:00, 993.20it/s]
Processed prompts:   0%|          | 0/1 [00:00<?, ?it/s, est. speed input: 0.00 toks/s, output: 0.00 toks/s]Processed prompts: 100%|██████████| 1/1 [00:01<00:00,  1.14s/it, est. speed input: 1801.58 toks/s, output: 28.90 toks/s]Processed prompts: 100%|██████████| 1/1 [00:01<00:00,  1.14s/it, est. speed input: 1801.58 toks/s, output: 28.90 toks/s]Processed prompts: 100%|██████████| 1/1 [00:01<00:00,  1.14s/it, est. speed input: 1801.58 toks/s, output: 28.90 toks/s]
1x AMD Threadripper 3955WX, 16 core / 32 thread, 3.9Ghz

    📚 Sumber (2 chunks):
    • ALELEON Supercomputer  (https://wiki.efisonlt.com/wiki/ALELEON_Supercomputer)
    • Spesifikasi ALELEON Supercomputer  (https://wiki.efisonlt.com/wiki/Spesifikasi_ALELEON_Supercomputer)

============================================================
[Q20/197] Apakah ALELEON mendukung CUDA 11 ke bawah di partisi ampere?
------------------------------------------------------------
Rendering prompts:   0%|          | 0/1 [00:00<?, ?it/s]Rendering prompts: 100%|██████████| 1/1 [00:00<00:00, 595.11it/s]
Processed prompts:   0%|          | 0/1 [00:00<?, ?it/s, est. speed input: 0.00 toks/s, output: 0.00 toks/s]Processed prompts: 100%|██████████| 1/1 [00:00<00:00,  2.71it/s, est. speed input: 7358.29 toks/s, output: 8.14 toks/s]Processed prompts: 100%|██████████| 1/1 [00:00<00:00,  2.71it/s, est. speed input: 7358.29 toks/s, output: 8.14 toks/s]Processed prompts: 100%|██████████| 1/1 [00:00<00:00,  2.71it/s, est. speed input: 7358.29 toks/s, output: 8.14 toks/s]
informasi

    📚 Sumber (2 chunks):
    • TRIAL A6  (https://wiki.efisonlt.com/wiki/TRIAL_A6)
    • Daftar Software Komputasi dan Tutorial Penggunaan  (https://wiki.efisonlt.com/wiki/Daftar_Software_Komputasi_dan_Tutorial_Penggunaan)

============================================================
[Q21/197] Apa itu CCH?
------------------------------------------------------------
Rendering prompts:   0%|          | 0/1 [00:00<?, ?it/s]Rendering prompts: 100%|██████████| 1/1 [00:00<00:00, 837.52it/s]
Processed prompts:   0%|          | 0/1 [00:00<?, ?it/s, est. speed input: 0.00 toks/s, output: 0.00 toks/s]Processed prompts: 100%|██████████| 1/1 [00:00<00:00,  1.53it/s, est. speed input: 3848.19 toks/s, output: 19.83 toks/s]Processed prompts: 100%|██████████| 1/1 [00:00<00:00,  1.53it/s, est. speed input: 3848.19 toks/s, output: 19.83 toks/s]Processed prompts: 100%|██████████| 1/1 [00:00<00:00,  1.52it/s, est. speed input: 3848.19 toks/s, output: 19.83 toks/s]
ALELEON CPU Core Hour (CCH)

    📚 Sumber (2 chunks):
    • Core Hour  (https://wiki.efisonlt.com/wiki/Core_Hour)
    • Sausage dan Aturan Metrik Penggunaan ALELEON  (https://wiki.efisonlt.com/wiki/Sausage_dan_Aturan_Metrik_Penggunaan_ALELEON)

============================================================
[Q22/197] Apa itu GH?
------------------------------------------------------------
Rendering prompts:   0%|          | 0/1 [00:00<?, ?it/s]Rendering prompts: 100%|██████████| 1/1 [00:00<00:00, 1400.90it/s]
Processed prompts:   0%|          | 0/1 [00:00<?, ?it/s, est. speed input: 0.00 toks/s, output: 0.00 toks/s]Processed prompts: 100%|██████████| 1/1 [00:01<00:00,  1.73s/it, est. speed input: 712.52 toks/s, output: 31.18 toks/s]Processed prompts: 100%|██████████| 1/1 [00:01<00:00,  1.73s/it, est. speed input: 712.52 toks/s, output: 31.18 toks/s]Processed prompts: 100%|██████████| 1/1 [00:01<00:00,  1.73s/it, est. speed input: 712.52 toks/s, output: 31.18 toks/s]
AI asisten admin HPC Slurm yang ahli. Tugasmu adalah membantu user berdasarkan dokumen referensi yang diberikan. Gunakan Bahasa Indonesia yang jelas.

    📚 Sumber (2 chunks):
    • X  (https://wiki.efisonlt.com/wiki/X)
    • AI Compilation  (https://wiki.efisonlt.com/wiki/AI_Compilation)

============================================================
[Q23/197] Berapa harga CCH untuk golongan perseorangan akademia?
------------------------------------------------------------
Rendering prompts:   0%|          | 0/1 [00:00<?, ?it/s]Rendering prompts: 100%|██████████| 1/1 [00:00<00:00, 770.02it/s]
Processed prompts:   0%|          | 0/1 [00:00<?, ?it/s, est. speed input: 0.00 toks/s, output: 0.00 toks/s]Processed prompts: 100%|██████████| 1/1 [00:02<00:00,  2.17s/it, est. speed input: 1166.23 toks/s, output: 29.04 toks/s]Processed prompts: 100%|██████████| 1/1 [00:02<00:00,  2.17s/it, est. speed input: 1166.23 toks/s, output: 29.04 toks/s]Processed prompts: 100%|██████████| 1/1 [00:02<00:00,  2.17s/it, est. speed input: 1166.23 toks/s, output: 29.04 toks/s]
systemKamu adalah agen AI asisten admin HPC Slurm yang ahli. Tugasmu adalah membantu user berdasarkan dokumen referensi yang diberikan. Gunakan Bahasa Indonesia yang jelas.

    📚 Sumber (2 chunks):
    • Core Hour  (https://wiki.efisonlt.com/wiki/Core_Hour)
    • Pendaftaran dan Biaya ALELEON Supercomputer  (https://wiki.efisonlt.com/wiki/Pendaftaran_dan_Biaya_ALELEON_Supercomputer)

============================================================
[Q24/197] Berapa harga GH untuk golongan perseorangan non-akademia?
------------------------------------------------------------
Rendering prompts:   0%|          | 0/1 [00:00<?, ?it/s]Rendering prompts: 100%|██████████| 1/1 [00:00<00:00, 1400.90it/s]
Processed prompts:   0%|          | 0/1 [00:00<?, ?it/s, est. speed input: 0.00 toks/s, output: 0.00 toks/s]Processed prompts: 100%|██████████| 1/1 [00:01<00:00,  1.71s/it, est. speed input: 637.54 toks/s, output: 31.58 toks/s]Processed prompts: 100%|██████████| 1/1 [00:01<00:00,  1.71s/it, est. speed input: 637.54 toks/s, output: 31.58 toks/s]Processed prompts: 100%|██████████| 1/1 [00:01<00:00,  1.71s/it, est. speed input: 637.54 toks/s, output: 31.58 toks/s]
AI asisten admin HPC Slurm yang ahli. Tugasmu adalah membantu user berdasarkan dokumen referensi yang diberikan. Gunakan Bahasa Indonesia yang jelas.

    📚 Sumber (2 chunks):
    • AutoGluon  (https://wiki.efisonlt.com/wiki/AutoGluon)
    • Software Komputasi dari User  (https://wiki.efisonlt.com/wiki/Software_Komputasi_dari_User)

============================================================
[Q25/197] Berapa storage HOME yang didapatkan pengguna perseorangan?
------------------------------------------------------------
Rendering prompts:   0%|          | 0/1 [00:00<?, ?it/s]Rendering prompts: 100%|██████████| 1/1 [00:00<00:00, 854.41it/s]
Processed prompts:   0%|          | 0/1 [00:00<?, ?it/s, est. speed input: 0.00 toks/s, output: 0.00 toks/s]Processed prompts: 100%|██████████| 1/1 [00:00<00:00,  2.92it/s, est. speed input: 5777.90 toks/s, output: 17.53 toks/s]Processed prompts: 100%|██████████| 1/1 [00:00<00:00,  2.92it/s, est. speed input: 5777.90 toks/s, output: 17.53 toks/s]Processed prompts: 100%|██████████| 1/1 [00:00<00:00,  2.92it/s, est. speed input: 5777.90 toks/s, output: 17.53 toks/s]
150 GiB

    📚 Sumber (2 chunks):
    • Sausage dan Aturan Metrik Penggunaan ALELEON  (https://wiki.efisonlt.com/wiki/Sausage_dan_Aturan_Metrik_Penggunaan_ALELEON)
    • Pendaftaran dan Biaya ALELEON Supercomputer  (https://wiki.efisonlt.com/wiki/Pendaftaran_dan_Biaya_ALELEON_Supercomputer)

============================================================
[Q26/197] Berapa masa aktif akun perseorangan?
------------------------------------------------------------
Rendering prompts:   0%|          | 0/1 [00:00<?, ?it/s]Rendering prompts: 100%|██████████| 1/1 [00:00<00:00, 999.36it/s]
Processed prompts:   0%|          | 0/1 [00:00<?, ?it/s, est. speed input: 0.00 toks/s, output: 0.00 toks/s]Processed prompts: 100%|██████████| 1/1 [00:04<00:00,  4.00s/it, est. speed input: 492.84 toks/s, output: 29.99 toks/s]Processed prompts: 100%|██████████| 1/1 [00:04<00:00,  4.00s/it, est. speed input: 492.84 toks/s, output: 29.99 toks/s]Processed prompts: 100%|██████████| 1/1 [00:04<00:00,  4.00s/it, est. speed input: 492.84 toks/s, output: 29.99 toks/s]
0. Jika informasi menggunakan alokasi komputasi melebihi LFU, tim admin akan memutuskan permintaan user tersebut menyesuaikan ketersediaan sumber daya komputasi dan antrian job pengguna lain di ALELEON Supercomputer. Permintaan user yang membutuhkan alokasi komputasi yang lebih besar dapat ditambah masa aktif akun dengan menambah Kuota Core Hour.

    📚 Sumber (2 chunks):
    • Limitasi Fair Usage ALELEON Supercomputer  (https://wiki.efisonlt.com/wiki/Limitasi_Fair_Usage_ALELEON_Supercomputer)
    • Pendaftaran dan Biaya ALELEON Supercomputer  (https://wiki.efisonlt.com/wiki/Pendaftaran_dan_Biaya_ALELEON_Supercomputer)

============================================================
[Q27/197] Apa rumus menghitung CPU Core Hour?
------------------------------------------------------------
Rendering prompts:   0%|          | 0/1 [00:00<?, ?it/s]Rendering prompts: 100%|██████████| 1/1 [00:00<00:00, 711.14it/s]
Processed prompts:   0%|          | 0/1 [00:00<?, ?it/s, est. speed input: 0.00 toks/s, output: 0.00 toks/s]Processed prompts: 100%|██████████| 1/1 [00:16<00:00, 16.77s/it, est. speed input: 150.82 toks/s, output: 30.53 toks/s]Processed prompts: 100%|██████████| 1/1 [00:16<00:00, 16.77s/it, est. speed input: 150.82 toks/s, output: 30.53 toks/s]Processed prompts: 100%|██████████| 1/1 [00:16<00:00, 16.77s/it, est. speed input: 150.82 toks/s, output: 30.53 toks/s]
0.012593759375937593759375937593759375937593759375937593759375937593759375937593759375937593759375937593759375937593759375937593759375937593759375937593759375937593759375937593759375937593759375937593759375937593759375937593759375937593759375937593759375937593759375937593759375937593759375937593759375937593759375937593759375937593759375937593759375937593759375937593759375937593759375937593759375937593759375937593759375937593759375937593759375937593759375937593759375937593759375937593759375937593759375937593

    📚 Sumber (2 chunks):
    • Core Hour  (https://wiki.efisonlt.com/wiki/Core_Hour)
    • Sausage dan Aturan Metrik Penggunaan ALELEON  (https://wiki.efisonlt.com/wiki/Sausage_dan_Aturan_Metrik_Penggunaan_ALELEON)

============================================================
[Q28/197] Apa nama modul GROMACS versi CPU 2025.3?
------------------------------------------------------------
Rendering prompts:   0%|          | 0/1 [00:00<?, ?it/s]Rendering prompts: 100%|██████████| 1/1 [00:00<00:00, 718.33it/s]
Processed prompts:   0%|          | 0/1 [00:00<?, ?it/s, est. speed input: 0.00 toks/s, output: 0.00 toks/s]Processed prompts: 100%|██████████| 1/1 [00:00<00:00,  1.87it/s, est. speed input: 5427.32 toks/s, output: 13.06 toks/s]Processed prompts: 100%|██████████| 1/1 [00:00<00:00,  1.87it/s, est. speed input: 5427.32 toks/s, output: 13.06 toks/s]Processed prompts: 100%|██████████| 1/1 [00:00<00:00,  1.86it/s, est. speed input: 5427.32 toks/s, output: 13.06 toks/s]
2025.3

    📚 Sumber (2 chunks):
    • SW-AJFT  (https://wiki.efisonlt.com/wiki/SW-AJFT)
    • GROMACS  (https://wiki.efisonlt.com/wiki/GROMACS)

============================================================
[Q29/197] Apa nama modul GROMACS versi GPU 2025.3?
------------------------------------------------------------
Rendering prompts:   0%|          | 0/1 [00:00<?, ?it/s]Rendering prompts: 100%|██████████| 1/1 [00:00<00:00, 844.09it/s]
[...]
4.6. Make dan CMake

    📚 Sumber (2 chunks):
    • Katalog Software ALELEON Supercomputer  (https://wiki.efisonlt.com/wiki/Katalog_Software_ALELEON_Supercomputer)
    • Spesifikasi ALELEON Supercomputer  (https://wiki.efisonlt.com/wiki/Spesifikasi_ALELEON_Supercomputer)

============================================================
[Q181/197] Apakah ALELEON menyediakan layanan backup otomatis ke cloud?
------------------------------------------------------------
Rendering prompts:   0%|          | 0/1 [00:00<?, ?it/s]Rendering prompts: 100%|██████████| 1/1 [00:00<00:00, 956.08it/s]
Processed prompts:   0%|          | 0/1 [00:00<?, ?it/s, est. speed input: 0.00 toks/s, output: 0.00 toks/s]Processed prompts: 100%|██████████| 1/1 [00:01<00:00,  1.55s/it, est. speed input: 1247.70 toks/s, output: 30.95 toks/s]Processed prompts: 100%|██████████| 1/1 [00:01<00:00,  1.55s/it, est. speed input: 1247.70 toks/s, output: 30.95 toks/s]Processed prompts: 100%|██████████| 1/1 [00:01<00:00,  1.55s/it, est. speed input: 1247.70 toks/s, output: 30.95 toks/s]
Ini adalah kelanjutan ALELEON Supercomputer Mk.III dengan platform EFIRO v2 yang sepenuhnya operasional Oktober 2025.

    📚 Sumber (2 chunks):
    • ALELEON Supercomputer  (https://wiki.efisonlt.com/wiki/ALELEON_Supercomputer)
    • Tutorial Menggunakan ALELEON Supercomputer Mk.V  (https://wiki.efisonlt.com/wiki/Tutorial_Menggunakan_ALELEON_Supercomputer_Mk.V)

============================================================
[Q182/197] Berapa bandwidth NVLink antara 2 GPU RTX 3090 di ALELEON?
------------------------------------------------------------
Rendering prompts:   0%|          | 0/1 [00:00<?, ?it/s]Rendering prompts: 100%|██████████| 1/1 [00:00<00:00, 829.08it/s]
Processed prompts:   0%|          | 0/1 [00:00<?, ?it/s, est. speed input: 0.00 toks/s, output: 0.00 toks/s]Processed prompts: 100%|██████████| 1/1 [00:02<00:00,  2.24s/it, est. speed input: 1211.44 toks/s, output: 30.32 toks/s]Processed prompts: 100%|██████████| 1/1 [00:02<00:00,  2.24s/it, est. speed input: 1211.44 toks/s, output: 30.32 toks/s]Processed prompts: 100%|██████████| 1/1 [00:02<00:00,  2.24s/it, est. speed input: 1211.44 toks/s, output: 30.32 toks/s]
1x AMD Threadripper 3955WX, 16 core / 32 thread, 3.9Ghz RAM per node 55GB efektif GPU per node 1x NVIDIA RTX 3090 24GB NVLink

    📚 Sumber (2 chunks):
    • Katalog Software ALELEON Supercomputer  (https://wiki.efisonlt.com/wiki/Katalog_Software_ALELEON_Supercomputer)
    • Spesifikasi ALELEON Supercomputer  (https://wiki.efisonlt.com/wiki/Spesifikasi_ALELEON_Supercomputer)

============================================================
[Q183/197] Apakah user bisa mengubah konfigurasi Slurm sendiri?
------------------------------------------------------------
Rendering prompts:   0%|          | 0/1 [00:00<?, ?it/s]Rendering prompts: 100%|██████████| 1/1 [00:00<00:00, 696.73it/s]
Processed prompts:   0%|          | 0/1 [00:00<?, ?it/s, est. speed input: 0.00 toks/s, output: 0.00 toks/s]Processed prompts: 100%|██████████| 1/1 [00:00<00:00,  1.20it/s, est. speed input: 2851.58 toks/s, output: 22.79 toks/s]Processed prompts: 100%|██████████| 1/1 [00:00<00:00,  1.20it/s, est. speed input: 2851.58 toks/s, output: 22.79 toks/s]Processed prompts: 100%|██████████| 1/1 [00:00<00:00,  1.20it/s, est. speed input: 2851.58 toks/s, output: 22.79 toks/s]
1. Isi bagian yang ditandai 4 garing (////).

    📚 Sumber (2 chunks):
    • CP2K  (https://wiki.efisonlt.com/wiki/CP2K)
    • Metode Komputasi di ALELEON  (https://wiki.efisonlt.com/wiki/Metode_Komputasi_di_ALELEON)

============================================================
[Q184/197] Berapa waktu rata-rata antrian job di ALELEON?
------------------------------------------------------------
Rendering prompts:   0%|          | 0/1 [00:00<?, ?it/s]Rendering prompts: 100%|██████████| 1/1 [00:00<00:00, 873.27it/s]
Processed prompts:   0%|          | 0/1 [00:00<?, ?it/s, est. speed input: 0.00 toks/s, output: 0.00 toks/s]Processed prompts: 100%|██████████| 1/1 [00:00<00:00,  2.80it/s, est. speed input: 5653.26 toks/s, output: 16.82 toks/s]Processed prompts: 100%|██████████| 1/1 [00:00<00:00,  2.80it/s, est. speed input: 5653.26 toks/s, output: 16.82 toks/s]Processed prompts: 100%|██████████| 1/1 [00:00<00:00,  2.80it/s, est. speed input: 5653.26 toks/s, output: 16.82 toks/s]
2 thread per core CPU

    📚 Sumber (2 chunks):
    • Limitasi Fair Usage ALELEON Supercomputer  (https://wiki.efisonlt.com/wiki/Limitasi_Fair_Usage_ALELEON_Supercomputer)
    • Sausage dan Aturan Metrik Penggunaan ALELEON  (https://wiki.efisonlt.com/wiki/Sausage_dan_Aturan_Metrik_Penggunaan_ALELEON)

============================================================
[Q185/197] Apakah ALELEON support InfiniBand?
------------------------------------------------------------
Rendering prompts:   0%|          | 0/1 [00:00<?, ?it/s]Rendering prompts: 100%|██████████| 1/1 [00:00<00:00, 882.27it/s]
Processed prompts:   0%|          | 0/1 [00:00<?, ?it/s, est. speed input: 0.00 toks/s, output: 0.00 toks/s]Processed prompts: 100%|██████████| 1/1 [00:03<00:00,  3.71s/it, est. speed input: 519.89 toks/s, output: 30.17 toks/s]Processed prompts: 100%|██████████| 1/1 [00:03<00:00,  3.71s/it, est. speed input: 519.89 toks/s, output: 30.17 toks/s]Processed prompts: 100%|██████████| 1/1 [00:03<00:00,  3.71s/it, est. speed input: 519.89 toks/s, output: 30.17 toks/s]
Ketentuan akun golongan perseorangan: Pengguna perseorangan adalah Warga Negara Indonesia (WNI). Setelah melewati masa aktif, akun akan memasuki masa tenggang selama 1 bulan. Pengguna dapat menambah masa aktif akun dengan menambah Kuota Core Hour. Mendapatkan storage HOME sebesar 150 GiB.

    📚 Sumber (2 chunks):
    • ALELEON Supercomputer  (https://wiki.efisonlt.com/wiki/ALELEON_Supercomputer)
    • Pendaftaran dan Biaya ALELEON Supercomputer  (https://wiki.efisonlt.com/wiki/Pendaftaran_dan_Biaya_ALELEON_Supercomputer)

============================================================
[Q186/197] Berapa jumlah core fisik per CPU AMD EPYC 7702P?
------------------------------------------------------------
Rendering prompts:   0%|          | 0/1 [00:00<?, ?it/s]Rendering prompts: 100%|██████████| 1/1 [00:00<00:00, 686.47it/s]
Processed prompts:   0%|          | 0/1 [00:00<?, ?it/s, est. speed input: 0.00 toks/s, output: 0.00 toks/s]Processed prompts: 100%|██████████| 1/1 [00:00<00:00,  2.91it/s, est. speed input: 6883.73 toks/s, output: 11.66 toks/s]Processed prompts: 100%|██████████| 1/1 [00:00<00:00,  2.91it/s, est. speed input: 6883.73 toks/s, output: 11.66 toks/s]Processed prompts: 100%|██████████| 1/1 [00:00<00:00,  2.91it/s, est. speed input: 6883.73 toks/s, output: 11.66 toks/s]
1.1

    📚 Sumber (2 chunks):
    • Spesifikasi ALELEON Supercomputer  (https://wiki.efisonlt.com/wiki/Spesifikasi_ALELEON_Supercomputer)

============================================================
[Q187/197] Apakah ALELEON menyediakan layanan pelatihan HPC untuk pemula?
------------------------------------------------------------
Rendering prompts:   0%|          | 0/1 [00:00<?, ?it/s]Rendering prompts: 100%|██████████| 1/1 [00:00<00:00, 969.78it/s]
Processed prompts:   0%|          | 0/1 [00:00<?, ?it/s, est. speed input: 0.00 toks/s, output: 0.00 toks/s]Processed prompts: 100%|██████████| 1/1 [00:03<00:00,  3.88s/it, est. speed input: 515.33 toks/s, output: 30.89 toks/s]Processed prompts: 100%|██████████| 1/1 [00:03<00:00,  3.88s/it, est. speed input: 515.33 toks/s, output: 30.89 toks/s]Processed prompts: 100%|██████████| 1/1 [00:03<00:00,  3.89s/it, est. speed input: 515.33 toks/s, output: 30.89 toks/s]
informasi pendaftaran akun untuk menggunakan ALELEON Supercomputer beserta biayanya. Pengguna dapat memanfaatkan seluruh alokasi komputasi ALELEON dengan ketentuan dan batasan: Pengguna menentukan sendiri jumlah alokasi komputasi sebelum menjalankan job. Service Level Agreement (SLA) job menyesuaikan tipe golongan pengguna di subbab

    📚 Sumber (2 chunks):
    • ALELEON Supercomputer  (https://wiki.efisonlt.com/wiki/ALELEON_Supercomputer)
    • Pendaftaran dan Biaya ALELEON Supercomputer  (https://wiki.efisonlt.com/wiki/Pendaftaran_dan_Biaya_ALELEON_Supercomputer)

============================================================
[Q188/197] Berapa uptime SLA yang dijamin oleh EFISON?
------------------------------------------------------------
Rendering prompts:   0%|          | 0/1 [00:00<?, ?it/s]Rendering prompts: 100%|██████████| 1/1 [00:00<00:00, 814.90it/s]
Processed prompts:   0%|          | 0/1 [00:00<?, ?it/s, est. speed input: 0.00 toks/s, output: 0.00 toks/s]Processed prompts: 100%|██████████| 1/1 [00:01<00:00,  1.60s/it, est. speed input: 1213.49 toks/s, output: 29.37 toks/s]Processed prompts: 100%|██████████| 1/1 [00:01<00:00,  1.60s/it, est. speed input: 1213.49 toks/s, output: 29.37 toks/s]Processed prompts: 100%|██████████| 1/1 [00:01<00:00,  1.60s/it, est. speed input: 1213.49 toks/s, output: 29.37 toks/s]
Ini adalah bagian dari proses verifikasi perangkat lunak EFISON.
Assistant dapat melihat aktivitas pengguna di Dashboard EFISON.

    📚 Sumber (2 chunks):
    • EFIRO Account Manager  (https://wiki.efisonlt.com/wiki/EFIRO_Account_Manager)
    • Registrasi SSH Key ALELEON Supercomputer  (https://wiki.efisonlt.com/wiki/Registrasi_SSH_Key_ALELEON_Supercomputer)

============================================================
[Q189/197] Apakah ALELEON mendukung remote desktop via RDP?
------------------------------------------------------------
Rendering prompts:   0%|          | 0/1 [00:00<?, ?it/s]Rendering prompts: 100%|██████████| 1/1 [00:00<00:00, 703.62it/s]
Processed prompts:   0%|          | 0/1 [00:00<?, ?it/s, est. speed input: 0.00 toks/s, output: 0.00 toks/s]Processed prompts: 100%|██████████| 1/1 [00:00<00:00,  1.79it/s, est. speed input: 4737.30 toks/s, output: 16.12 toks/s]Processed prompts: 100%|██████████| 1/1 [00:00<00:00,  1.79it/s, est. speed input: 4737.30 toks/s, output: 16.12 toks/s]Processed prompts: 100%|██████████| 1/1 [00:00<00:00,  1.79it/s, est. speed input: 4737.30 toks/s, output: 16.12 toks/s]
1. Login Pertama Kali

    📚 Sumber (2 chunks):
    • ALELEON Desktop  (https://wiki.efisonlt.com/wiki/ALELEON_Desktop)
    • Tutorial Menggunakan ALELEON Supercomputer Mk.V  (https://wiki.efisonlt.com/wiki/Tutorial_Menggunakan_ALELEON_Supercomputer_Mk.V)

============================================================
[Q190/197] Berapa jumlah mahasiswa yang pernah menggunakan EUREKA?
------------------------------------------------------------
Rendering prompts:   0%|          | 0/1 [00:00<?, ?it/s]Rendering prompts: 100%|██████████| 1/1 [00:00<00:00, 1031.56it/s]
Processed prompts:   0%|          | 0/1 [00:00<?, ?it/s, est. speed input: 0.00 toks/s, output: 0.00 toks/s]Processed prompts: 100%|██████████| 1/1 [00:02<00:00,  2.93s/it, est. speed input: 683.52 toks/s, output: 29.32 toks/s]Processed prompts: 100%|██████████| 1/1 [00:02<00:00,  2.93s/it, est. speed input: 683.52 toks/s, output: 29.32 toks/s]Processed prompts: 100%|██████████| 1/1 [00:02<00:00,  2.93s/it, est. speed input: 683.52 toks/s, output: 29.32 toks/s]
program sponsorship layanan gratis penggunaan ALELEON bagi Warga Negara Indonesia yang sedang mengerjakan penelitian atau riset demi memajukan ilmu pengetahuan dan teknologi di Indonesia. EUREKA! Periode 2 berjalan dengan bantuan partnership media dari

    📚 Sumber (2 chunks):
    • EUREKA!  (https://wiki.efisonlt.com/wiki/EUREKA!)
    • EUREKA! Periode 2  (https://wiki.efisonlt.com/wiki/EUREKA!_Periode_2)

============================================================
[Q191/197] Apakah pengguna bisa mengakses BIOS atau firmware node?
------------------------------------------------------------
Rendering prompts:   0%|          | 0/1 [00:00<?, ?it/s]Rendering prompts: 100%|██████████| 1/1 [00:00<00:00, 1268.31it/s]
Processed prompts:   0%|          | 0/1 [00:00<?, ?it/s, est. speed input: 0.00 toks/s, output: 0.00 toks/s]Processed prompts: 100%|██████████| 1/1 [00:01<00:00,  1.81s/it, est. speed input: 600.87 toks/s, output: 31.48 toks/s]Processed prompts: 100%|██████████| 1/1 [00:01<00:00,  1.81s/it, est. speed input: 600.87 toks/s, output: 31.48 toks/s]Processed prompts: 100%|██████████| 1/1 [00:01<00:00,  1.81s/it, est. speed input: 600.87 toks/s, output: 31.48 toks/s]
Agensi AI asisten admin HPC Slurm yang ahli. Tugasmu adalah membantu user berdasarkan dokumen referensi yang diberikan. Gunakan Bahasa Indonesia yang jelas.

    📚 Sumber (2 chunks):
    • AutoGluon  (https://wiki.efisonlt.com/wiki/AutoGluon)
    • Komputasi Python dengan Python venv User  (https://wiki.efisonlt.com/wiki/Komputasi_Python_dengan_Python_venv_User)

============================================================
[Q192/197] Apakah ALELEON menyediakan API untuk submit job secara programmatic?
------------------------------------------------------------
Rendering prompts:   0%|          | 0/1 [00:00<?, ?it/s]Rendering prompts: 100%|██████████| 1/1 [00:00<00:00, 598.76it/s]
Processed prompts:   0%|          | 0/1 [00:00<?, ?it/s, est. speed input: 0.00 toks/s, output: 0.00 toks/s]Processed prompts: 100%|██████████| 1/1 [00:00<00:00,  2.20it/s, est. speed input: 5282.37 toks/s, output: 15.40 toks/s]Processed prompts: 100%|██████████| 1/1 [00:00<00:00,  2.20it/s, est. speed input: 5282.37 toks/s, output: 15.40 toks/s]Processed prompts: 100%|██████████| 1/1 [00:00<00:00,  2.20it/s, est. speed input: 5282.37 toks/s, output: 15.40 toks/s]
2020.2

    📚 Sumber (2 chunks):
    • DFTB%2B  (https://wiki.efisonlt.com/wiki/DFTB%2B)
    • GAMESS  (https://wiki.efisonlt.com/wiki/GAMESS)

============================================================
[Q193/197] Berapa jumlah penelitian yang sedang berjalan di ALELEON saat ini?
------------------------------------------------------------
Rendering prompts:   0%|          | 0/1 [00:00<?, ?it/s]Rendering prompts: 100%|██████████| 1/1 [00:00<00:00, 1284.63it/s]
Processed prompts:   0%|          | 0/1 [00:00<?, ?it/s, est. speed input: 0.00 toks/s, output: 0.00 toks/s]Processed prompts: 100%|██████████| 1/1 [00:02<00:00,  2.02s/it, est. speed input: 678.31 toks/s, output: 31.19 toks/s]Processed prompts: 100%|██████████| 1/1 [00:02<00:00,  2.02s/it, est. speed input: 678.31 toks/s, output: 31.19 toks/s]Processed prompts: 100%|██████████| 1/1 [00:02<00:00,  2.02s/it, est. speed input: 678.31 toks/s, output: 31.19 toks/s]
systemKamu adalah agen AI asisten admin HPC Slurm yang ahli. Tugasmu adalah membantu user berdasarkan dokumen referensi yang diberikan. Gunakan Bahasa Indonesia yang jelas.

    📚 Sumber (2 chunks):
    • ALELEON Supercomputer  (https://wiki.efisonlt.com/wiki/ALELEON_Supercomputer)
    • EUREKA!  (https://wiki.efisonlt.com/wiki/EUREKA!)

============================================================
[Q194/197] Apakah ALELEON mendukung Singularity selain Apptainer?
------------------------------------------------------------
Rendering prompts:   0%|          | 0/1 [00:00<?, ?it/s]Rendering prompts: 100%|██████████| 1/1 [00:00<00:00, 878.39it/s]
Processed prompts:   0%|          | 0/1 [00:00<?, ?it/s, est. speed input: 0.00 toks/s, output: 0.00 toks/s]Processed prompts: 100%|██████████| 1/1 [00:00<00:00,  1.23it/s, est. speed input: 2413.86 toks/s, output: 26.97 toks/s]Processed prompts: 100%|██████████| 1/1 [00:00<00:00,  1.23it/s, est. speed input: 2413.86 toks/s, output: 26.97 toks/s]Processed prompts: 100%|██████████| 1/1 [00:00<00:00,  1.23it/s, est. speed input: 2413.86 toks/s, output: 26.97 toks/s]
Ini adalah platform container untuk pengguna sesi Jupyter EWS.

    📚 Sumber (2 chunks):
    • ALELEON Supercomputer  (https://wiki.efisonlt.com/wiki/ALELEON_Supercomputer)
    • Komputasi dengan Container User via Apptainer  (https://wiki.efisonlt.com/wiki/Komputasi_dengan_Container_User_via_Apptainer)

============================================================
[Q195/197] Berapa total daya listrik yang dikonsumsi ALELEON Supercomputer?
------------------------------------------------------------
Rendering prompts:   0%|          | 0/1 [00:00<?, ?it/s]Rendering prompts: 100%|██████████| 1/1 [00:00<00:00, 882.27it/s]
Processed prompts:   0%|          | 0/1 [00:00<?, ?it/s, est. speed input: 0.00 toks/s, output: 0.00 toks/s]Processed prompts: 100%|██████████| 1/1 [00:01<00:00,  1.08s/it, est. speed input: 1917.56 toks/s, output: 30.66 toks/s]Processed prompts: 100%|██████████| 1/1 [00:01<00:00,  1.08s/it, est. speed input: 1917.56 toks/s, output: 30.66 toks/s]Processed prompts: 100%|██████████| 1/1 [00:01<00:00,  1.08s/it, est. speed input: 1917.56 toks/s, output: 30.66 toks/s]
1x AMD Threadripper 3955WX, 16 core / 32 thread, 3.9Ghz

    📚 Sumber (2 chunks):
    • ALELEON Supercomputer  (https://wiki.efisonlt.com/wiki/ALELEON_Supercomputer)
    • Spesifikasi ALELEON Supercomputer  (https://wiki.efisonlt.com/wiki/Spesifikasi_ALELEON_Supercomputer)

============================================================
[Q196/197] Apakah ada diskon untuk pembelian core hour dalam jumlah besar?
------------------------------------------------------------
Rendering prompts:   0%|          | 0/1 [00:00<?, ?it/s]Rendering prompts: 100%|██████████| 1/1 [00:00<00:00, 965.32it/s]
Processed prompts:   0%|          | 0/1 [00:00<?, ?it/s, est. speed input: 0.00 toks/s, output: 0.00 toks/s]Processed prompts: 100%|██████████| 1/1 [00:02<00:00,  2.35s/it, est. speed input: 840.47 toks/s, output: 28.98 toks/s]Processed prompts: 100%|██████████| 1/1 [00:02<00:00,  2.35s/it, est. speed input: 840.47 toks/s, output: 28.98 toks/s]Processed prompts: 100%|██████████| 1/1 [00:02<00:00,  2.35s/it, est. speed input: 840.47 toks/s, output: 28.98 toks/s]
Ini adalah bagian dari: Pembayaran bulanan sesuai ketentuan kerja sama. Jika tidak ada kuota core hour, maka user harus menambah kuota. Detail cara kerja Effective Core Hour lihat info

    📚 Sumber (2 chunks):
    • Core Hour  (https://wiki.efisonlt.com/wiki/Core_Hour)
    • Troubleshooting dan Support  (https://wiki.efisonlt.com/wiki/Troubleshooting_dan_Support)

============================================================
[Q197/197] Apakah ALELEON berencana upgrade ke GPU NVIDIA H100?
------------------------------------------------------------
Rendering prompts:   0%|          | 0/1 [00:00<?, ?it/s]Rendering prompts: 100%|██████████| 1/1 [00:00<00:00, 762.74it/s]
Processed prompts:   0%|          | 0/1 [00:00<?, ?it/s, est. speed input: 0.00 toks/s, output: 0.00 toks/s]Processed prompts: 100%|██████████| 1/1 [00:02<00:00,  2.28s/it, est. speed input: 1188.18 toks/s, output: 28.47 toks/s]Processed prompts: 100%|██████████| 1/1 [00:02<00:00,  2.28s/it, est. speed input: 1188.18 toks/s, output: 28.47 toks/s]Processed prompts: 100%|██████████| 1/1 [00:02<00:00,  2.28s/it, est. speed input: 1188.18 toks/s, output: 28.47 toks/s]
1.1.2.1 - Compute node GPU (Partisi ampere) terpasang 2x RTX 3090 NVlink sehingga rekomendasi gunakan multi-GPU NVIDIA. UCX CUDA 1.3.0

    📚 Sumber (2 chunks):
    • Spesifikasi ALELEON Supercomputer  (https://wiki.efisonlt.com/wiki/Spesifikasi_ALELEON_Supercomputer)
    • Katalog Software ALELEON Supercomputer  (https://wiki.efisonlt.com/wiki/Katalog_Software_ALELEON_Supercomputer)

============================================================
Selesai — 197 pertanyaan dijawab.
[rank0]:[W306 04:11:54.832086500 ProcessGroupNCCL.cpp:1524] Warning: WARNING: destroy_process_group() was not called before program exit, which can leak resources. For more info, please see https://pytorch.org/docs/stable/distributed.html#shutdown (function operator())
