Memulai proses RAG dengan mesin vLLM...

[1] Membaca & splitting halaman wiki berdasarkan struktur HTML...
    Mengambil sitemap...
    → 63 URL ditemukan
    [1/63] ALELEON Supercomputer: 771 chars
    [2/63] Submit Script ALELEON Supercomputer: 7660 chars
    [3/63] Core Hour: 3615 chars
    [4/63] Katalog Software ALELEON Supercomputer: 6932 chars
    [5/63] Pendaftaran dan Biaya ALELEON Supercomputer: 5348 chars
    [6/63] R: 12150 chars
    [7/63] Spesifikasi ALELEON Supercomputer: 3325 chars
    [8/63] GROMACS: 14179 chars
    [9/63] NWChem: 5806 chars
    [10/63] Quantum ESPRESSO: 8717 chars
    [11/63] GAMESS: 5762 chars
    [12/63] NAMD: 7430 chars
    [13/63] ORCA: 8965 chars
    [14/63] Koneksi VPN ALELEON Supercomputer: 3964 chars
    [15/63] COMCOT: 5626 chars
    [16/63] PHASE/0: 8050 chars
    [17/63] EasyBuild: 2106 chars
    [18/63] MPI ALELEON Supercomputer: 11867 chars
    [19/63] EUREKA!: 413 chars
    [20/63] EUREKA! Periode 2: 2044 chars
    [21/63] Daftar Software Komputasi dan Tutorial Penggunaan: 1788 chars
    [22/63] CP2K: 10557 chars
    [23/63] SPECFEM3D: 30 chars
    [24/63] SW-GXN: 16317 chars
    [25/63] LAMMPS: 10353 chars
    [26/63] DFTB%2B: 7948 chars
    [27/63] OpenMX: 9413 chars
    [28/63] Publikasi Pengguna ALELEON Supercomputer: 3789 chars
    [29/63] Limitasi Fair Usage ALELEON Supercomputer: 2596 chars
    [30/63] Kode Reason ALELEON Supercomputer: 1270 chars
    [31/63] Komputasi Python dengan Conda Environment User: 17551 chars
    [32/63] Komputasi Python: 486 chars
    [33/63] Komputasi dengan Container User via Apptainer: 17524 chars
    [34/63] Trial Testing: 18327 chars
    [35/63] ALELEON Desktop: 2471 chars
    [36/63] Upload - Download File ALELEON: 2000 chars
    [37/63] TRIAL A6: 21518 chars
    [38/63] Troubleshooting dan Support: 7910 chars
    [39/63] Tutorial Menggunakan ALELEON Supercomputer Mk.V: 3056 chars
    [40/63] Login Pertama ALELEON Supercomputer: 1863 chars
    [41/63] EFIRO Account Manager: 2900 chars
    [42/63] Pengantar SSH Key: 2598 chars
    [43/63] Sausage dan Aturan Metrik Penggunaan ALELEON: 6228 chars
    [44/63] Daftar Environment Python ALELEON: 488 chars
    [45/63] Pengenalan Menggunakan ALELEON Supercomputer: 3049 chars
    [46/63] Metode Komputasi di ALELEON: 3683 chars
    [47/63] Migrasi Akun dan Data Mk.III ke Mk.V: 5921 chars
    [48/63] SW-AMK: 6972 chars
    [49/63] Login SSH dan SFTP ALELEON Supercomputer: 4694 chars
    [50/63] SIESTA: 7939 chars
    [51/63] SW-AJFT: 15972 chars
    [52/63] X: 6033 chars
    [53/63] Komputasi Python dengan Python venv User: 203 chars
    [54/63] Software Komputasi Instalasi User: 1340 chars
    [55/63] Phono3py dan Phonopy: 12622 chars
    [56/63] Registrasi SSH Key ALELEON Supercomputer: 5164 chars
    [57/63] BoltzTraP2: 13253 chars
    [58/63] AI Compilation: 203 chars
    [59/63] ACPYPE: 12747 chars
    [60/63] GMX-MMPBSA: 12476 chars
    [61/63] AutoGluon: 488 chars
    [62/63] XUIN Temporary: 5788 chars
    [63/63] Software Komputasi dari User: 203 chars

    → Total chunks: 63

    [Chunk 0] (803 chars):
    [Sumber: ALELEON Supercomputer]
Selamat datang di wiki ALELEON Supercomputer! ALELEON Supercomputer adalah layanan super...

    [Chunk 1] (7706 chars):
    [Sumber: Submit Script ALELEON Supercomputer]
Halaman ini menjelaskan pemahaman
Submit Script
yang merupakan 'formulir' ...

    [Chunk 2] (3635 chars):
    [Sumber: Core Hour]
Core Hour adalah metrik yang digunakan oleh ALELEON Supercomputer untuk menghitung biaya penggunaan ...

    [Chunk 3] (6981 chars):
    [Sumber: Katalog Software ALELEON Supercomputer]
Halaman ini memuat info daftar software terinstal di ALELEON Supercompu...

    [Chunk 4] (5402 chars):
    [Sumber: Pendaftaran dan Biaya ALELEON Supercomputer]
Halaman ini memuat informasi pendaftaran akun untuk menggunakan AL...

    [Chunk 5] (12162 chars):
    [Sumber: R]
R adalah bahasa interpreter yang didesain untuk mengerjakan komputasi statistika. Pada perkembangannya, baha...

    [Chunk 6] (3369 chars):
    [Sumber: Spesifikasi ALELEON Supercomputer]
ALELEON Supercomputer saat ini menggunakan
ALELEON Mk.V
- superkomputer
cust...

    [Chunk 7] (14197 chars):
    [Sumber: GROMACS]
[
GROMACS
]
adalah package berkecepatan tinggi untuk komputasi dinamika molekular baik untuk biokimia ...

    [Chunk 8] (5823 chars):
    [Sumber: NWChem]
NWChem
adalah software komputasi kimia untuk biomolekul, kimia kuantum, kimia klasik,
Gaussian, nanostr...

    [Chunk 9] (8744 chars):
    [Sumber: Quantum ESPRESSO]
[
Quantum ESPRESSO
]
adalah framework suite untuk kalkulasi
electronic-structure
dan modeling...

    [Chunk 10] (5779 chars):
    [Sumber: GAMESS]
GAMESS
(General Atomic and Molecular Electronic Structure System) adalah package
ab-inito
kimia kuantum...

    [Chunk 11] (7445 chars):
    [Sumber: NAMD]
NAMD
adalah framework dinamika molekular yang digunakan untuk komputasi biomolekuler skala besar di HPC. ...

    [Chunk 12] (8980 chars):
    [Sumber: ORCA]
[
ORCA
]
adalah package ab-inito kimia kuantum yang menyediakan semua metode
electronic structure
seperti...

    [Chunk 13] (4008 chars):
    [Sumber: Koneksi VPN ALELEON Supercomputer]
HOL'UP! Halaman ini bersifat LEGACY untuk ALELEON Mk.III (saat ini sudah Mk....

    [Chunk 14] (5643 chars):
    [Sumber: COMCOT]
COMCOT (Cornell Multi-grid Coupled Tsunami Grid)
adalah software pemodelan tsunami yang menggunakan met...

    [Chunk 15] (8068 chars):
    [Sumber: PHASE/0]
[
PHASE/0
]
adalah program untuk menghitung struktur elektronik yang berbasis DFT (density functional ...

    [Chunk 16] (2126 chars):
    [Sumber: EasyBuild]
Daftar isi
1
Deskripsi
2
Mengatur Direktori Instalasi Software
3
Melihat Daftar Software yang Tersed...

    [Chunk 17] (11903 chars):
    [Sumber: MPI ALELEON Supercomputer]
Halaman ini menjelaskan teknis menjalankan program
MPI
di ALELEON Supercomputer seca...

    [Chunk 18] (431 chars):
    [Sumber: EUREKA!]
EUREKA! adalah
program sponsorship layanan gratis penggunaan ALELEON Superkomputer
bagi Warga Negara I...

    [Chunk 19] (2072 chars):
    [Sumber: EUREKA! Periode 2]
EUREKA! Periode 2 adalah instalasi kedua dari
EUREKA!
yaitu program sponsorship layanan grat...

    [Chunk 20] (1848 chars):
    [Sumber: Daftar Software Komputasi dan Tutorial Penggunaan]
Halaman ini bagian dari:
[
Tutorial Menggunakan ALELEON Mk.V...

    [Chunk 21] (10572 chars):
    [Sumber: CP2K]
[
CP2K
]
adalah package untuk
quantum chemistry
dan
solid state physics
yang dapat melakukan simulasi liq...

    [Chunk 22] (50 chars):
    [Sumber: SPECFEM3D]
SPECFEM3D adalah software .......

    [Chunk 23] (16334 chars):
    [Sumber: SW-GXN]
Ini adalah panduan spesifik bagi user group gxn untuk menggunakan ALELEON Supercomputer.
- Daftar isi -...

    [Chunk 24] (10370 chars):
    [Sumber: LAMMPS]
[
LAMMPS
]
(Large-scale Atomic/Molecular Massively Parallel Simulator)
adalah framework molekular dinam...

    [Chunk 25] (7966 chars):
    [Sumber: DFTB%2B]
DFTB+
adalah software package yang versatil untuk simulasi
mechanical quantum
. DFTB+ merupakan softwa...

    [Chunk 26] (9430 chars):
    [Sumber: OpenMX]
[
OpenMX
]
adalah software package untuk simulasi material skala nano berdasarkan DFT (Density Function...

    [Chunk 27] (3840 chars):
    [Sumber: Publikasi Pengguna ALELEON Supercomputer]
Berikut adalah daftar publikasi dari pengguna yang menyertakan kredit...

    [Chunk 28] (2648 chars):
    [Sumber: Limitasi Fair Usage ALELEON Supercomputer]
Per tanggal 3 Februari 2023, ALELEON Supercomputer mengimplementasik...

    [Chunk 29] (1314 chars):
    [Sumber: Kode Reason ALELEON Supercomputer]
Pada pembacaan status antrian job squeue, tab NODELIST(REASON) dapat memberi...

    [Chunk 30] (17608 chars):
    [Sumber: Komputasi Python dengan Conda Environment User]
Halaman ini menjelaskan langkah menjalankan komputasi Python di...

    [Chunk 31] (513 chars):
    [Sumber: Komputasi Python]
Maaf, halaman ini baru saja dihapus (dalam rentang waktu 24 jam).
Log penghapusan, perlindung...

    [Chunk 32] (17580 chars):
    [Sumber: Komputasi dengan Container User via Apptainer]
Halaman ini menjelaskan langkah menjalankan software komputasi u...

    [Chunk 33] (18351 chars):
    [Sumber: Trial Testing]
Halaman ini menjabarkan tutorial untuk pengujian software komputasi dan hardware di ALELEON Supe...

    [Chunk 34] (2497 chars):
    [Sumber: ALELEON Desktop]
ALELEON Desktop adalah sesi interaktif virtual desktop berbasiskan Desktop Environment (DE) Li...

    [Chunk 35] (2041 chars):
    [Sumber: Upload - Download File ALELEON]
Halaman ini menjelaskan opsi dan langkah transfer data (
upload - download file...

    [Chunk 36] (21537 chars):
    [Sumber: TRIAL A6]
Ini adalah panduan
all-in-one
untuk masa uji coba user dengan
kode [A]/6
.
Daftar isi
1
Login ALELEON...

    [Chunk 37] (7948 chars):
    [Sumber: Troubleshooting dan Support]
Halaman ini membahas langkah troubleshooting dan support masalah user di ALELEON S...

    [Chunk 38] (3114 chars):
    [Sumber: Tutorial Menggunakan ALELEON Supercomputer Mk.V]
ALELEON Mk.V
adalah kelanjutan ALELEON Supercomputer Mk.III de...

    [Chunk 39] (1909 chars):
    [Sumber: Login Pertama ALELEON Supercomputer]
Halaman ini bagian dari:
[
Tutorial Menggunakan ALELEON Mk.V
]
Halaman ini...

    [Chunk 40] (2932 chars):
    [Sumber: EFIRO Account Manager]
EFIRO Account Manager
<
EAM
>
adalah portal web untuk manajemen info akun dan password u...

    [Chunk 41] (2626 chars):
    [Sumber: Pengantar SSH Key]
Halaman ini adalah
pengantar
bagi user yang pertama kali mengenal dan membuat SSH Key.
Halam...

    [Chunk 42] (6283 chars):
    [Sumber: Sausage dan Aturan Metrik Penggunaan ALELEON]
Halaman ini bagian dari:
[
Daftar Software Komputasi dan Tutorial...

    [Chunk 43] (532 chars):
    [Sumber: Daftar Environment Python ALELEON]
Maaf, halaman ini baru saja dihapus (dalam rentang waktu 24 jam).
Log pengha...

    [Chunk 44] (3104 chars):
    [Sumber: Pengenalan Menggunakan ALELEON Supercomputer]
Halaman ini merangkum pengenalan budaya menggunakan ALELEON Super...

    [Chunk 45] (3721 chars):
    [Sumber: Metode Komputasi di ALELEON]
Halaman ini menjelaskan
konsep menjalankan komputasi
di ALELEON yaitu manajemen Sl...

    [Chunk 46] (5968 chars):
    [Sumber: Migrasi Akun dan Data Mk.III ke Mk.V]
Halaman ini ditujukan bagi
user ALELEON Mk.III (dan Mk.II)
untuk pengumum...

    [Chunk 47] (6989 chars):
    [Sumber: SW-AMK]
Ini adalah panduan spesifik bagi grup user
AMK
untuk menggunakan ALELEON Supercomputer.
- Daftar isi -
...

    [Chunk 48] (4745 chars):
    [Sumber: Login SSH dan SFTP ALELEON Supercomputer]
Halaman ini bagian dari:
[
Tutorial ALELEON Supercomputer Mk.V
]
Hala...

    [Chunk 49] (7956 chars):
    [Sumber: SIESTA]
[
SIESTA
]
, dikembangkan oleh MaX Centre of Excellence, adalah metode dan framework untuk kalkulasi
el...

    [Chunk 50] (15990 chars):
    [Sumber: SW-AJFT]
Ini adalah panduan spesifik bagi user group ajft untuk menggunakan ALELEON Supercomputer.
- Daftar Isi...

    [Chunk 51] (6045 chars):
    [Sumber: X]
TRIAL
Pilihan Menjalankan Komputasi
Berikut opsi yang dapat dipilih sesuai kebutuhan dan preferensi user:
Pe...

    [Chunk 52] (254 chars):
    [Sumber: Komputasi Python dengan Python venv User]
Saat ini tidak ada teks di halaman ini.
Anda dapat
melakukan pencaria...

    [Chunk 53] (1384 chars):
    [Sumber: Software Komputasi Instalasi User]
Halaman ini bagian dari:
[
Daftar Software Komputasi dan Tutorial
]
Halaman ...

    [Chunk 54] (12653 chars):
    [Sumber: Phono3py dan Phonopy]
[
Phono3py
]
adalah package Python untuk kalkulasi
lattice thermal conductivity
suatu mat...

    [Chunk 55] (5215 chars):
    [Sumber: Registrasi SSH Key ALELEON Supercomputer]
Halaman ini bagian dari:
[
Tutorial ALELEON Supercomputer Mk.V
]
[
Lo...

    [Chunk 56] (13274 chars):
    [Sumber: BoltzTraP2]
[
BoltzTraP2
]
adalah implementasi modern berbasis package Python untuk
smoothed Fourier interpolat...

    [Chunk 57] (228 chars):
    [Sumber: AI Compilation]
Saat ini tidak ada teks di halaman ini.
Anda dapat
melakukan pencarian untuk judul halaman ini
...

    [Chunk 58] (12764 chars):
    [Sumber: ACPYPE]
[
ACYPE
]
(AnteChamber PYthon Parser InterfacE) adalah package Python berbasis software Antechamber unt...

    [Chunk 59] (12497 chars):
    [Sumber: GMX-MMPBSA]
[
gmx_MMPBSA
]
adalah package Python berbasis MMPBSA.py dari AMBER untuk kalkulasi end-state free e...

    [Chunk 60] (508 chars):
    [Sumber: AutoGluon]
Maaf, halaman ini baru saja dihapus (dalam rentang waktu 24 jam).
Log penghapusan, perlindungan, dan...

    [Chunk 61] (5813 chars):
    [Sumber: XUIN Temporary]
Update 12 Januari 2026
1. Daftar Instalasi Package AI
Instalasi global per tanggal 12 Januari 2...

    [Chunk 62] (242 chars):
    [Sumber: Software Komputasi dari User]
Saat ini tidak ada teks di halaman ini.
Anda dapat
melakukan pencarian untuk judu...
[3] Load model embedding lokal...
[4] Menyimpan vektor ke database Chroma...
Failed to send telemetry event ClientStartEvent: capture() takes 1 positional argument but 3 were given
Failed to send telemetry event ClientCreateCollectionEvent: capture() takes 1 positional argument but 3 were given

[5] Memuat model Qwen ke GPU menggunakan vLLM...
    (Ini akan memakan waktu untuk alokasi KV Cache di VRAM)
INFO 03-05 10:04:23 [utils.py:229] non-default args: {'trust_remote_code': True, 'max_model_len': 32768, 'gpu_memory_utilization': 0.8, 'disable_log_stats': True, 'enforce_eager': True, 'model': 'Qwen/Qwen2.5-Coder-7B-Instruct'}
WARNING 03-05 10:04:23 [envs.py:1663] Unknown vLLM environment variable detected: VLLM_ATTENTION_BACKEND
WARNING 03-05 10:04:23 [envs.py:1663] Unknown vLLM environment variable detected: VLLM_USE_V1
The argument `trust_remote_code` is to be used with Auto classes. It has no effect here and is ignored.
The argument `trust_remote_code` is to be used with Auto classes. It has no effect here and is ignored.
INFO 03-05 10:04:25 [model.py:532] Resolved architecture: Qwen2ForCausalLM
INFO 03-05 10:04:25 [model.py:1556] Using max model len 32768
INFO 03-05 10:04:25 [scheduler.py:231] Chunked prefill is enabled with max_num_batched_tokens=8192.
INFO 03-05 10:04:25 [vllm.py:697] Asynchronous scheduling is enabled.
WARNING 03-05 10:04:25 [vllm.py:731] Enforce eager set, disabling torch.compile and CUDAGraphs. This is equivalent to setting -cc.mode=none -cc.cudagraph_mode=none
WARNING 03-05 10:04:25 [vllm.py:742] Inductor compilation was disabled by user settings, optimizations settings that are only active during inductor compilation will be ignored.
INFO 03-05 10:04:25 [vllm.py:855] Cudagraph is disabled under eager mode
WARNING 03-05 10:04:27 [system_utils.py:140] We must use the `spawn` multiprocessing start method. Overriding VLLM_WORKER_MULTIPROC_METHOD to 'spawn'. See https://docs.vllm.ai/en/latest/usage/troubleshooting.html#python-multiprocessing for more information. Reasons: CUDA is initialized
(EngineCore_DP0 pid=547) INFO 03-05 10:04:30 [core.py:98] Initializing a V1 LLM engine (v0.16.0rc2.dev409+g596ed1f02) with config: model='Qwen/Qwen2.5-Coder-7B-Instruct', speculative_config=None, tokenizer='Qwen/Qwen2.5-Coder-7B-Instruct', skip_tokenizer_init=False, tokenizer_mode=auto, revision=None, tokenizer_revision=None, trust_remote_code=True, dtype=torch.bfloat16, max_seq_len=32768, download_dir=None, load_format=auto, tensor_parallel_size=1, pipeline_parallel_size=1, data_parallel_size=1, disable_custom_all_reduce=True, quantization=None, enforce_eager=True, enable_return_routed_experts=False, kv_cache_dtype=auto, device_config=cuda, structured_outputs_config=StructuredOutputsConfig(backend='auto', disable_fallback=False, disable_any_whitespace=False, disable_additional_properties=False, reasoning_parser='', reasoning_parser_plugin='', enable_in_reasoning=False), observability_config=ObservabilityConfig(show_hidden_metrics_for_version=None, otlp_traces_endpoint=None, collect_detailed_traces=None, kv_cache_metrics=False, kv_cache_metrics_sample=0.01, cudagraph_metrics=False, enable_layerwise_nvtx_tracing=False, enable_mfu_metrics=False, enable_mm_processor_stats=False, enable_logging_iteration_details=False), seed=0, served_model_name=Qwen/Qwen2.5-Coder-7B-Instruct, enable_prefix_caching=True, enable_chunked_prefill=True, pooler_config=None, compilation_config={'level': None, 'mode': <CompilationMode.NONE: 0>, 'debug_dump_path': None, 'cache_dir': '', 'compile_cache_save_format': 'binary', 'backend': 'inductor', 'custom_ops': ['all', '+sparse_attn_indexer'], 'splitting_ops': [], 'compile_mm_encoder': False, 'compile_sizes': [], 'compile_ranges_split_points': [8192], 'inductor_compile_config': {'enable_auto_functionalized_v2': False, 'combo_kernels': True, 'benchmark_combo_kernel': True}, 'inductor_passes': {}, 'cudagraph_mode': <CUDAGraphMode.NONE: 0>, 'cudagraph_num_of_warmups': 0, 'cudagraph_capture_sizes': [], 'cudagraph_copy_inputs': False, 'cudagraph_specialize_lora': True, 'use_inductor_graph_partition': False, 'pass_config': {'fuse_norm_quant': True, 'fuse_act_quant': True, 'fuse_attn_quant': False, 'enable_sp': False, 'fuse_gemm_comms': False, 'fuse_allreduce_rms': False, 'fuse_act_padding': False}, 'max_cudagraph_capture_size': 0, 'dynamic_shapes_config': {'type': <DynamicShapesType.BACKED: 'backed'>, 'evaluate_guards': False, 'assume_32_bit_indexing': False}, 'local_cache_dir': None, 'fast_moe_cold_start': True, 'static_all_moe_layers': []}
(EngineCore_DP0 pid=547) WARNING 03-05 10:04:31 [gpt_oss_triton_kernels_moe.py:55] Using legacy triton_kernels on ROCm
(EngineCore_DP0 pid=547) INFO 03-05 10:04:31 [parallel_state.py:1307] world_size=1 rank=0 local_rank=0 distributed_init_method=tcp://172.16.1.36:41529 backend=nccl
(EngineCore_DP0 pid=547) INFO 03-05 10:04:31 [parallel_state.py:1535] rank 0 in world size 1 is assigned as DP rank 0, PP rank 0, PCP rank 0, TP rank 0, EP rank N/A, EPLB rank N/A
(EngineCore_DP0 pid=547) INFO 03-05 10:04:31 [gpu_model_runner.py:4139] Starting to load model Qwen/Qwen2.5-Coder-7B-Instruct...
(EngineCore_DP0 pid=547) INFO 03-05 10:04:31 [rocm.py:372] Using Triton Attention backend.
(EngineCore_DP0 pid=547) WARNING 03-05 10:04:31 [compilation.py:1095] Op 'sparse_attn_indexer' not present in model, enabling with '+sparse_attn_indexer' has no effect
(EngineCore_DP0 pid=547) Loading safetensors checkpoint shards:   0% Completed | 0/4 [00:00<?, ?it/s]
(EngineCore_DP0 pid=547) Loading safetensors checkpoint shards:  25% Completed | 1/4 [00:01<00:05,  1.94s/it]
(EngineCore_DP0 pid=547) Loading safetensors checkpoint shards:  50% Completed | 2/4 [00:05<00:05,  2.92s/it]
(EngineCore_DP0 pid=547) Loading safetensors checkpoint shards:  75% Completed | 3/4 [00:07<00:02,  2.70s/it]
(EngineCore_DP0 pid=547) Loading safetensors checkpoint shards: 100% Completed | 4/4 [00:08<00:00,  1.86s/it]
(EngineCore_DP0 pid=547) Loading safetensors checkpoint shards: 100% Completed | 4/4 [00:08<00:00,  2.14s/it]
(EngineCore_DP0 pid=547) 
(EngineCore_DP0 pid=547) INFO 03-05 10:04:42 [default_loader.py:293] Loading weights took 8.58 seconds
(EngineCore_DP0 pid=547) INFO 03-05 10:04:42 [gpu_model_runner.py:4236] Model loading took 14.35 GiB memory and 10.609770 seconds
(EngineCore_DP0 pid=547) INFO 03-05 10:04:45 [gpu_worker.py:405] Available KV cache memory: 9.58 GiB
(EngineCore_DP0 pid=547) INFO 03-05 10:04:45 [kv_cache_utils.py:1314] GPU KV cache size: 179,360 tokens
(EngineCore_DP0 pid=547) INFO 03-05 10:04:45 [kv_cache_utils.py:1319] Maximum concurrency for 32,768 tokens per request: 5.47x
(EngineCore_DP0 pid=547) INFO 03-05 10:04:45 [core.py:278] init engine (profile, create kv cache, warmup model) took 2.74 seconds
(EngineCore_DP0 pid=547) INFO 03-05 10:04:46 [vllm.py:697] Asynchronous scheduling is enabled.
(EngineCore_DP0 pid=547) WARNING 03-05 10:04:46 [vllm.py:731] Enforce eager set, disabling torch.compile and CUDAGraphs. This is equivalent to setting -cc.mode=none -cc.cudagraph_mode=none
(EngineCore_DP0 pid=547) WARNING 03-05 10:04:46 [vllm.py:742] Inductor compilation was disabled by user settings, optimizations settings that are only active during inductor compilation will be ignored.
(EngineCore_DP0 pid=547) INFO 03-05 10:04:46 [vllm.py:855] Cudagraph is disabled under eager mode
INFO 03-05 10:04:47 [llm.py:361] Supported tasks: ['generate']

============================================================
[Q1/197] Apa itu ALELEON Supercomputer?
------------------------------------------------------------
[2026-03-05 10:04:47] ERROR posthog.py:61: Failed to send telemetry event CollectionQueryEvent: capture() takes 1 positional argument but 3 were given
Rendering prompts:   0%|          | 0/1 [00:00<?, ?it/s]Rendering prompts: 100%|██████████| 1/1 [00:00<00:00, 68.31it/s]
Processed prompts:   0%|          | 0/1 [00:00<?, ?it/s, est. speed input: 0.00 toks/s, output: 0.00 toks/s]Processed prompts: 100%|██████████| 1/1 [00:01<00:00,  1.59s/it, est. speed input: 1740.18 toks/s, output: 23.95 toks/s]Processed prompts: 100%|██████████| 1/1 [00:01<00:00,  1.59s/it, est. speed input: 1740.18 toks/s, output: 23.95 toks/s]Processed prompts: 100%|██████████| 1/1 [00:01<00:00,  1.59s/it, est. speed input: 1740.18 toks/s, output: 23.95 toks/s]
ALELEON Supercomputer adalah layanan superkomputer publik pertama dari EFISON yang dirancang untuk komputasi saintifik, machine learning, dan big data.

    📚 Sumber (3 chunks):
    • ALELEON Supercomputer  (https://wiki.efisonlt.com/wiki/ALELEON_Supercomputer)
    • Spesifikasi ALELEON Supercomputer  (https://wiki.efisonlt.com/wiki/Spesifikasi_ALELEON_Supercomputer)
    • Pengenalan Menggunakan ALELEON Supercomputer  (https://wiki.efisonlt.com/wiki/Pengenalan_Menggunakan_ALELEON_Supercomputer)

============================================================
[Q2/197] Apa email support admin ALELEON?
------------------------------------------------------------
Rendering prompts:   0%|          | 0/1 [00:00<?, ?it/s]Rendering prompts: 100%|██████████| 1/1 [00:00<00:00, 492.98it/s]
Processed prompts:   0%|          | 0/1 [00:00<?, ?it/s, est. speed input: 0.00 toks/s, output: 0.00 toks/s]Processed prompts: 100%|██████████| 1/1 [00:00<00:00,  2.47it/s, est. speed input: 5415.34 toks/s, output: 17.30 toks/s]Processed prompts: 100%|██████████| 1/1 [00:00<00:00,  2.47it/s, est. speed input: 5415.34 toks/s, output: 17.30 toks/s]Processed prompts: 100%|██████████| 1/1 [00:00<00:00,  2.47it/s, est. speed input: 5415.34 toks/s, output: 17.30 toks/s]
support@efisonlt.com

    📚 Sumber (3 chunks):
    • ALELEON Supercomputer  (https://wiki.efisonlt.com/wiki/ALELEON_Supercomputer)
    • Tutorial Menggunakan ALELEON Supercomputer Mk.V  (https://wiki.efisonlt.com/wiki/Tutorial_Menggunakan_ALELEON_Supercomputer_Mk.V)
    • Login Pertama ALELEON Supercomputer  (https://wiki.efisonlt.com/wiki/Login_Pertama_ALELEON_Supercomputer)

============================================================
[Q3/197] Jam kerja support EFISON kapan?
------------------------------------------------------------
Rendering prompts:   0%|          | 0/1 [00:00<?, ?it/s]Rendering prompts: 100%|██████████| 1/1 [00:00<00:00, 463.36it/s]
Processed prompts:   0%|          | 0/1 [00:00<?, ?it/s, est. speed input: 0.00 toks/s, output: 0.00 toks/s]Processed prompts: 100%|██████████| 1/1 [00:01<00:00,  1.56s/it, est. speed input: 1408.49 toks/s, output: 29.41 toks/s]Processed prompts: 100%|██████████| 1/1 [00:01<00:00,  1.56s/it, est. speed input: 1408.49 toks/s, output: 29.41 toks/s]Processed prompts: 100%|██████████| 1/1 [00:01<00:00,  1.56s/it, est. speed input: 1408.49 toks/s, output: 29.41 toks/s]
Tim admin EFISON dapat merespon pertanyaan dan memberikan support pada hari kerja Senin sampai Jumat antara jam 09.00 sampai 17.30 WIB.

    📚 Sumber (3 chunks):
    • Upload - Download File ALELEON  (https://wiki.efisonlt.com/wiki/Upload_-_Download_File_ALELEON)
    • Tutorial Menggunakan ALELEON Supercomputer Mk.V  (https://wiki.efisonlt.com/wiki/Tutorial_Menggunakan_ALELEON_Supercomputer_Mk.V)
    • ALELEON Supercomputer  (https://wiki.efisonlt.com/wiki/ALELEON_Supercomputer)

============================================================
[Q4/197] ALELEON Mk.V menggunakan platform apa?
------------------------------------------------------------
Rendering prompts:   0%|          | 0/1 [00:00<?, ?it/s]Rendering prompts: 100%|██████████| 1/1 [00:00<00:00, 383.57it/s]
Processed prompts:   0%|          | 0/1 [00:00<?, ?it/s, est. speed input: 0.00 toks/s, output: 0.00 toks/s]Processed prompts: 100%|██████████| 1/1 [00:01<00:00,  1.02s/it, est. speed input: 3224.63 toks/s, output: 20.60 toks/s]Processed prompts: 100%|██████████| 1/1 [00:01<00:00,  1.02s/it, est. speed input: 3224.63 toks/s, output: 20.60 toks/s]Processed prompts: 100%|██████████| 1/1 [00:01<00:00,  1.02s/it, est. speed input: 3224.63 toks/s, output: 20.60 toks/s]
ALELEON Mk.V menggunakan platform web untuk login pertama kali dan aktivasi akun.

    📚 Sumber (3 chunks):
    • ALELEON Supercomputer  (https://wiki.efisonlt.com/wiki/ALELEON_Supercomputer)
    • Migrasi Akun dan Data Mk.III ke Mk.V  (https://wiki.efisonlt.com/wiki/Migrasi_Akun_dan_Data_Mk.III_ke_Mk.V)
    • Login Pertama ALELEON Supercomputer  (https://wiki.efisonlt.com/wiki/Login_Pertama_ALELEON_Supercomputer)

============================================================
[Q5/197] Sistem operasi apa yang digunakan ALELEON?
------------------------------------------------------------
Rendering prompts:   0%|          | 0/1 [00:00<?, ?it/s]Rendering prompts: 100%|██████████| 1/1 [00:00<00:00, 197.73it/s]
Processed prompts:   0%|          | 0/1 [00:00<?, ?it/s, est. speed input: 0.00 toks/s, output: 0.00 toks/s]Processed prompts: 100%|██████████| 1/1 [00:01<00:00,  1.60s/it, est. speed input: 4194.53 toks/s, output: 8.11 toks/s]Processed prompts: 100%|██████████| 1/1 [00:01<00:00,  1.60s/it, est. speed input: 4194.53 toks/s, output: 8.11 toks/s]Processed prompts: 100%|██████████| 1/1 [00:01<00:00,  1.60s/it, est. speed input: 4194.53 toks/s, output: 8.11 toks/s]
Saya tidak menemukan informasi tersebut di sistem.

    📚 Sumber (3 chunks):
    • ALELEON Supercomputer  (https://wiki.efisonlt.com/wiki/ALELEON_Supercomputer)
    • Pengenalan Menggunakan ALELEON Supercomputer  (https://wiki.efisonlt.com/wiki/Pengenalan_Menggunakan_ALELEON_Supercomputer)
    • SW-GXN  (https://wiki.efisonlt.com/wiki/SW-GXN)

============================================================
[Q6/197] Versi Slurm yang digunakan ALELEON berapa?
------------------------------------------------------------
Rendering prompts:   0%|          | 0/1 [00:00<?, ?it/s]Rendering prompts: 100%|██████████| 1/1 [00:00<00:00, 324.51it/s]
Processed prompts:   0%|          | 0/1 [00:00<?, ?it/s, est. speed input: 0.00 toks/s, output: 0.00 toks/s]Processed prompts: 100%|██████████| 1/1 [00:00<00:00,  1.12it/s, est. speed input: 4072.91 toks/s, output: 14.56 toks/s]Processed prompts: 100%|██████████| 1/1 [00:00<00:00,  1.12it/s, est. speed input: 4072.91 toks/s, output: 14.56 toks/s]Processed prompts: 100%|██████████| 1/1 [00:00<00:00,  1.12it/s, est. speed input: 4072.91 toks/s, output: 14.56 toks/s]
Saya tidak menemukan informasi tersebut di sistem.

    📚 Sumber (3 chunks):
    • Metode Komputasi di ALELEON  (https://wiki.efisonlt.com/wiki/Metode_Komputasi_di_ALELEON)
    • Pengenalan Menggunakan ALELEON Supercomputer  (https://wiki.efisonlt.com/wiki/Pengenalan_Menggunakan_ALELEON_Supercomputer)
    • Core Hour  (https://wiki.efisonlt.com/wiki/Core_Hour)

============================================================
[Q7/197] Apa nama portal web untuk menggunakan ALELEON?
------------------------------------------------------------
Rendering prompts:   0%|          | 0/1 [00:00<?, ?it/s]Rendering prompts: 100%|██████████| 1/1 [00:00<00:00, 236.98it/s]
Processed prompts:   0%|          | 0/1 [00:00<?, ?it/s, est. speed input: 0.00 toks/s, output: 0.00 toks/s]Processed prompts: 100%|██████████| 1/1 [00:01<00:00,  1.66s/it, est. speed input: 3858.94 toks/s, output: 10.86 toks/s]Processed prompts: 100%|██████████| 1/1 [00:01<00:00,  1.66s/it, est. speed input: 3858.94 toks/s, output: 10.86 toks/s]Processed prompts: 100%|██████████| 1/1 [00:01<00:00,  1.66s/it, est. speed input: 3858.94 toks/s, output: 10.86 toks/s]
Portal web untuk menggunakan ALELEON adalah EFIRO Web Service (EWS).

    📚 Sumber (3 chunks):
    • ALELEON Supercomputer  (https://wiki.efisonlt.com/wiki/ALELEON_Supercomputer)
    • Login Pertama ALELEON Supercomputer  (https://wiki.efisonlt.com/wiki/Login_Pertama_ALELEON_Supercomputer)
    • SW-GXN  (https://wiki.efisonlt.com/wiki/SW-GXN)

============================================================
[Q8/197] Apa URL untuk login ke EFIRO Web Service?
------------------------------------------------------------
Rendering prompts:   0%|          | 0/1 [00:00<?, ?it/s]Rendering prompts: 100%|██████████| 1/1 [00:00<00:00, 445.11it/s]
Processed prompts:   0%|          | 0/1 [00:00<?, ?it/s, est. speed input: 0.00 toks/s, output: 0.00 toks/s]Processed prompts: 100%|██████████| 1/1 [00:00<00:00,  1.08it/s, est. speed input: 3008.49 toks/s, output: 21.67 toks/s]Processed prompts: 100%|██████████| 1/1 [00:00<00:00,  1.08it/s, est. speed input: 3008.49 toks/s, output: 21.67 toks/s]Processed prompts: 100%|██████████| 1/1 [00:00<00:00,  1.08it/s, est. speed input: 3008.49 toks/s, output: 21.67 toks/s]
URL untuk login ke EFIRO Web Service adalah:
     https://aleleonsuper.computer

    📚 Sumber (3 chunks):
    • EFIRO Account Manager  (https://wiki.efisonlt.com/wiki/EFIRO_Account_Manager)
    • Login Pertama ALELEON Supercomputer  (https://wiki.efisonlt.com/wiki/Login_Pertama_ALELEON_Supercomputer)
    • Tutorial Menggunakan ALELEON Supercomputer Mk.V  (https://wiki.efisonlt.com/wiki/Tutorial_Menggunakan_ALELEON_Supercomputer_Mk.V)

============================================================
[Q9/197] Apa itu EFIRO Account Manager?
------------------------------------------------------------
Rendering prompts:   0%|          | 0/1 [00:00<?, ?it/s]Rendering prompts: 100%|██████████| 1/1 [00:00<00:00, 357.85it/s]
Processed prompts:   0%|          | 0/1 [00:00<?, ?it/s, est. speed input: 0.00 toks/s, output: 0.00 toks/s]Processed prompts: 100%|██████████| 1/1 [00:01<00:00,  1.26s/it, est. speed input: 3255.03 toks/s, output: 20.56 toks/s]Processed prompts: 100%|██████████| 1/1 [00:01<00:00,  1.26s/it, est. speed input: 3255.03 toks/s, output: 20.56 toks/s]Processed prompts: 100%|██████████| 1/1 [00:01<00:00,  1.26s/it, est. speed input: 3255.03 toks/s, output: 20.56 toks/s]
EFIRO Account Manager adalah portal web untuk manajemen informasi akun dan password user ALELEON Supercomputer.

    📚 Sumber (3 chunks):
    • EFIRO Account Manager  (https://wiki.efisonlt.com/wiki/EFIRO_Account_Manager)
    • Tutorial Menggunakan ALELEON Supercomputer Mk.V  (https://wiki.efisonlt.com/wiki/Tutorial_Menggunakan_ALELEON_Supercomputer_Mk.V)
    • X  (https://wiki.efisonlt.com/wiki/X)

============================================================
[Q10/197] Bagaimana cara mengganti password akun ALELEON?
------------------------------------------------------------
Rendering prompts:   0%|          | 0/1 [00:00<?, ?it/s]Rendering prompts: 100%|██████████| 1/1 [00:00<00:00, 476.63it/s]
Processed prompts:   0%|          | 0/1 [00:00<?, ?it/s, est. speed input: 0.00 toks/s, output: 0.00 toks/s]Processed prompts: 100%|██████████| 1/1 [00:03<00:00,  3.13s/it, est. speed input: 888.63 toks/s, output: 30.69 toks/s]Processed prompts: 100%|██████████| 1/1 [00:03<00:00,  3.13s/it, est. speed input: 888.63 toks/s, output: 30.69 toks/s]Processed prompts: 100%|██████████| 1/1 [00:03<00:00,  3.13s/it, est. speed input: 888.63 toks/s, output: 30.69 toks/s]
Untuk mengganti password akun ALELEON, ikuti langkah-langkah berikut:

     1. Buka web [https://login.efisonlt.com].
     2. Login dengan username dan password user.
     3. Setelah berhasil login, buka menu "Account security > Signing In".
     4. Klik "Update" pada bagian Password.
     5. Buat password baru dan klik "Submit".

    📚 Sumber (3 chunks):
    • Login Pertama ALELEON Supercomputer  (https://wiki.efisonlt.com/wiki/Login_Pertama_ALELEON_Supercomputer)
    • EFIRO Account Manager  (https://wiki.efisonlt.com/wiki/EFIRO_Account_Manager)
    • Tutorial Menggunakan ALELEON Supercomputer Mk.V  (https://wiki.efisonlt.com/wiki/Tutorial_Menggunakan_ALELEON_Supercomputer_Mk.V)

============================================================
[Q11/197] Berapa jumlah node di partisi epyc?
------------------------------------------------------------
Rendering prompts:   0%|          | 0/1 [00:00<?, ?it/s]Rendering prompts: 100%|██████████| 1/1 [00:00<00:00, 188.63it/s]
Processed prompts:   0%|          | 0/1 [00:00<?, ?it/s, est. speed input: 0.00 toks/s, output: 0.00 toks/s]Processed prompts: 100%|██████████| 1/1 [00:01<00:00,  1.66s/it, est. speed input: 4720.93 toks/s, output: 1.81 toks/s]Processed prompts: 100%|██████████| 1/1 [00:01<00:00,  1.66s/it, est. speed input: 4720.93 toks/s, output: 1.81 toks/s]Processed prompts: 100%|██████████| 1/1 [00:01<00:00,  1.66s/it, est. speed input: 4720.93 toks/s, output: 1.81 toks/s]
2

    📚 Sumber (3 chunks):
    • Spesifikasi ALELEON Supercomputer  (https://wiki.efisonlt.com/wiki/Spesifikasi_ALELEON_Supercomputer)
    • CP2K  (https://wiki.efisonlt.com/wiki/CP2K)
    • ORCA  (https://wiki.efisonlt.com/wiki/ORCA)

============================================================
[Q12/197] CPU apa yang digunakan di partisi epyc?
------------------------------------------------------------
Rendering prompts:   0%|          | 0/1 [00:00<?, ?it/s]Rendering prompts: 100%|██████████| 1/1 [00:00<00:00, 238.91it/s]
Processed prompts:   0%|          | 0/1 [00:00<?, ?it/s, est. speed input: 0.00 toks/s, output: 0.00 toks/s]Processed prompts: 100%|██████████| 1/1 [00:01<00:00,  1.64s/it, est. speed input: 3448.13 toks/s, output: 17.05 toks/s]Processed prompts: 100%|██████████| 1/1 [00:01<00:00,  1.64s/it, est. speed input: 3448.13 toks/s, output: 17.05 toks/s]Processed prompts: 100%|██████████| 1/1 [00:01<00:00,  1.64s/it, est. speed input: 3448.13 toks/s, output: 17.05 toks/s]
AMD EPYC 7702P, 64 core / 128 thread, 2.0Ghz

    📚 Sumber (3 chunks):
    • Spesifikasi ALELEON Supercomputer  (https://wiki.efisonlt.com/wiki/Spesifikasi_ALELEON_Supercomputer)
    • Daftar Software Komputasi dan Tutorial Penggunaan  (https://wiki.efisonlt.com/wiki/Daftar_Software_Komputasi_dan_Tutorial_Penggunaan)
    • CP2K  (https://wiki.efisonlt.com/wiki/CP2K)

============================================================
[Q13/197] Berapa RAM efektif per node di partisi epyc?
------------------------------------------------------------
Rendering prompts:   0%|          | 0/1 [00:00<?, ?it/s]Rendering prompts: 100%|██████████| 1/1 [00:00<00:00, 286.12it/s]
Processed prompts:   0%|          | 0/1 [00:00<?, ?it/s, est. speed input: 0.00 toks/s, output: 0.00 toks/s]Processed prompts: 100%|██████████| 1/1 [00:00<00:00,  1.16it/s, est. speed input: 5658.20 toks/s, output: 9.32 toks/s]Processed prompts: 100%|██████████| 1/1 [00:00<00:00,  1.16it/s, est. speed input: 5658.20 toks/s, output: 9.32 toks/s]Processed prompts: 100%|██████████| 1/1 [00:00<00:00,  1.16it/s, est. speed input: 5658.20 toks/s, output: 9.32 toks/s]
240GB efektif

    📚 Sumber (3 chunks):
    • Spesifikasi ALELEON Supercomputer  (https://wiki.efisonlt.com/wiki/Spesifikasi_ALELEON_Supercomputer)
    • Kode Reason ALELEON Supercomputer  (https://wiki.efisonlt.com/wiki/Kode_Reason_ALELEON_Supercomputer)
    • ORCA  (https://wiki.efisonlt.com/wiki/ORCA)

============================================================
[Q14/197] Berapa RAM efektif di partisi epyc-jumbo?
------------------------------------------------------------
Rendering prompts:   0%|          | 0/1 [00:00<?, ?it/s]Rendering prompts: 100%|██████████| 1/1 [00:00<00:00, 241.59it/s]
Processed prompts:   0%|          | 0/1 [00:00<?, ?it/s, est. speed input: 0.00 toks/s, output: 0.00 toks/s]Processed prompts: 100%|██████████| 1/1 [00:01<00:00,  1.15s/it, est. speed input: 5155.27 toks/s, output: 7.79 toks/s]Processed prompts: 100%|██████████| 1/1 [00:01<00:00,  1.15s/it, est. speed input: 5155.27 toks/s, output: 7.79 toks/s]Processed prompts: 100%|██████████| 1/1 [00:01<00:00,  1.15s/it, est. speed input: 5155.27 toks/s, output: 7.79 toks/s]
500GB efektif

    📚 Sumber (3 chunks):
    • Spesifikasi ALELEON Supercomputer  (https://wiki.efisonlt.com/wiki/Spesifikasi_ALELEON_Supercomputer)
    • GMX-MMPBSA  (https://wiki.efisonlt.com/wiki/GMX-MMPBSA)
    • Kode Reason ALELEON Supercomputer  (https://wiki.efisonlt.com/wiki/Kode_Reason_ALELEON_Supercomputer)

============================================================
[Q15/197] GPU apa yang digunakan di partisi ampere?
------------------------------------------------------------
Rendering prompts:   0%|          | 0/1 [00:00<?, ?it/s]Rendering prompts: 100%|██████████| 1/1 [00:00<00:00, 201.60it/s]
Processed prompts:   0%|          | 0/1 [00:00<?, ?it/s, est. speed input: 0.00 toks/s, output: 0.00 toks/s]Processed prompts: 100%|██████████| 1/1 [00:02<00:00,  2.01s/it, est. speed input: 3894.22 toks/s, output: 7.44 toks/s]Processed prompts: 100%|██████████| 1/1 [00:02<00:00,  2.01s/it, est. speed input: 3894.22 toks/s, output: 7.44 toks/s]Processed prompts: 100%|██████████| 1/1 [00:02<00:00,  2.01s/it, est. speed input: 3894.22 toks/s, output: 7.44 toks/s]
GPU yang digunakan di partisi ampere adalah GPU Ampere.

    📚 Sumber (3 chunks):
    • Daftar Software Komputasi dan Tutorial Penggunaan  (https://wiki.efisonlt.com/wiki/Daftar_Software_Komputasi_dan_Tutorial_Penggunaan)
    • LAMMPS  (https://wiki.efisonlt.com/wiki/LAMMPS)
    • CP2K  (https://wiki.efisonlt.com/wiki/CP2K)

============================================================
[Q16/197] Berapa jumlah GPU di compute node ampere?
------------------------------------------------------------
Rendering prompts:   0%|          | 0/1 [00:00<?, ?it/s]Rendering prompts: 100%|██████████| 1/1 [00:00<00:00, 261.56it/s]
Processed prompts:   0%|          | 0/1 [00:00<?, ?it/s, est. speed input: 0.00 toks/s, output: 0.00 toks/s]Processed prompts: 100%|██████████| 1/1 [00:00<00:00,  9.87it/s, est. speed input: 55878.91 toks/s, output: 29.61 toks/s]Processed prompts: 100%|██████████| 1/1 [00:00<00:00,  9.87it/s, est. speed input: 55878.91 toks/s, output: 29.61 toks/s]Processed prompts: 100%|██████████| 1/1 [00:00<00:00,  9.86it/s, est. speed input: 55878.91 toks/s, output: 29.61 toks/s]
2

    📚 Sumber (3 chunks):
    • Spesifikasi ALELEON Supercomputer  (https://wiki.efisonlt.com/wiki/Spesifikasi_ALELEON_Supercomputer)
    • Daftar Software Komputasi dan Tutorial Penggunaan  (https://wiki.efisonlt.com/wiki/Daftar_Software_Komputasi_dan_Tutorial_Penggunaan)
    • CP2K  (https://wiki.efisonlt.com/wiki/CP2K)

============================================================
[Q17/197] Apa interkoneksi yang digunakan di partisi epyc?
------------------------------------------------------------
Rendering prompts:   0%|          | 0/1 [00:00<?, ?it/s]Rendering prompts: 100%|██████████| 1/1 [00:00<00:00, 198.91it/s]
Processed prompts:   0%|          | 0/1 [00:00<?, ?it/s, est. speed input: 0.00 toks/s, output: 0.00 toks/s]Processed prompts: 100%|██████████| 1/1 [00:02<00:00,  2.28s/it, est. speed input: 3611.04 toks/s, output: 10.96 toks/s]Processed prompts: 100%|██████████| 1/1 [00:02<00:00,  2.28s/it, est. speed input: 3611.04 toks/s, output: 10.96 toks/s]Processed prompts: 100%|██████████| 1/1 [00:02<00:00,  2.28s/it, est. speed input: 3611.04 toks/s, output: 10.96 toks/s]
Interkoneksi yang digunakan di partisi epyc adalah Mellanox RoCE 100Gbps.

    📚 Sumber (3 chunks):
    • Spesifikasi ALELEON Supercomputer  (https://wiki.efisonlt.com/wiki/Spesifikasi_ALELEON_Supercomputer)
    • Tutorial Menggunakan ALELEON Supercomputer Mk.V  (https://wiki.efisonlt.com/wiki/Tutorial_Menggunakan_ALELEON_Supercomputer_Mk.V)
    • SW-AJFT  (https://wiki.efisonlt.com/wiki/SW-AJFT)

============================================================
[Q18/197] Berapa kapasitas hot storage SSD di ALELEON?
------------------------------------------------------------
Rendering prompts:   0%|          | 0/1 [00:00<?, ?it/s]Rendering prompts: 100%|██████████| 1/1 [00:00<00:00, 382.10it/s]
Processed prompts:   0%|          | 0/1 [00:00<?, ?it/s, est. speed input: 0.00 toks/s, output: 0.00 toks/s]Processed prompts: 100%|██████████| 1/1 [00:00<00:00,  1.90it/s, est. speed input: 6666.49 toks/s, output: 13.29 toks/s]Processed prompts: 100%|██████████| 1/1 [00:00<00:00,  1.90it/s, est. speed input: 6666.49 toks/s, output: 13.29 toks/s]Processed prompts: 100%|██████████| 1/1 [00:00<00:00,  1.90it/s, est. speed input: 6666.49 toks/s, output: 13.29 toks/s]
28TB efektif

    📚 Sumber (3 chunks):
    • Spesifikasi ALELEON Supercomputer  (https://wiki.efisonlt.com/wiki/Spesifikasi_ALELEON_Supercomputer)
    • ALELEON Supercomputer  (https://wiki.efisonlt.com/wiki/ALELEON_Supercomputer)
    • Pendaftaran dan Biaya ALELEON Supercomputer  (https://wiki.efisonlt.com/wiki/Pendaftaran_dan_Biaya_ALELEON_Supercomputer)

============================================================
[Q19/197] Berapa kapasitas cold storage HDD di ALELEON?
------------------------------------------------------------
Rendering prompts:   0%|          | 0/1 [00:00<?, ?it/s]Rendering prompts: 100%|██████████| 1/1 [00:00<00:00, 393.02it/s]
Processed prompts:   0%|          | 0/1 [00:00<?, ?it/s, est. speed input: 0.00 toks/s, output: 0.00 toks/s]Processed prompts: 100%|██████████| 1/1 [00:00<00:00,  1.54it/s, est. speed input: 5395.78 toks/s, output: 33.81 toks/s]Processed prompts: 100%|██████████| 1/1 [00:00<00:00,  1.54it/s, est. speed input: 5395.78 toks/s, output: 33.81 toks/s]Processed prompts: 100%|██████████| 1/1 [00:00<00:00,  1.54it/s, est. speed input: 5395.78 toks/s, output: 33.81 toks/s]
Kapasitas cold storage HDD di ALELEON adalah 83TiB efektif.

    📚 Sumber (3 chunks):
    • Spesifikasi ALELEON Supercomputer  (https://wiki.efisonlt.com/wiki/Spesifikasi_ALELEON_Supercomputer)
    • ALELEON Supercomputer  (https://wiki.efisonlt.com/wiki/ALELEON_Supercomputer)
    • Pendaftaran dan Biaya ALELEON Supercomputer  (https://wiki.efisonlt.com/wiki/Pendaftaran_dan_Biaya_ALELEON_Supercomputer)

============================================================
[Q20/197] Apakah ALELEON mendukung CUDA 11 ke bawah di partisi ampere?
------------------------------------------------------------
Rendering prompts:   0%|          | 0/1 [00:00<?, ?it/s]Rendering prompts: 100%|██████████| 1/1 [00:00<00:00, 178.16it/s]
Processed prompts:   0%|          | 0/1 [00:00<?, ?it/s, est. speed input: 0.00 toks/s, output: 0.00 toks/s]Processed prompts: 100%|██████████| 1/1 [00:01<00:00,  1.66s/it, est. speed input: 5025.03 toks/s, output: 1.81 toks/s]Processed prompts: 100%|██████████| 1/1 [00:01<00:00,  1.66s/it, est. speed input: 5025.03 toks/s, output: 1.81 toks/s]Processed prompts: 100%|██████████| 1/1 [00:01<00:00,  1.66s/it, est. speed input: 5025.03 toks/s, output: 1.81 toks/s]
Tidak

    📚 Sumber (3 chunks):
    • Spesifikasi ALELEON Supercomputer  (https://wiki.efisonlt.com/wiki/Spesifikasi_ALELEON_Supercomputer)
    • TRIAL A6  (https://wiki.efisonlt.com/wiki/TRIAL_A6)
    • ALELEON Supercomputer  (https://wiki.efisonlt.com/wiki/ALELEON_Supercomputer)

============================================================
[Q21/197] Apa itu CCH?
------------------------------------------------------------
Rendering prompts:   0%|          | 0/1 [00:00<?, ?it/s]Rendering prompts: 100%|██████████| 1/1 [00:00<00:00, 756.82it/s]
Processed prompts:   0%|          | 0/1 [00:00<?, ?it/s, est. speed input: 0.00 toks/s, output: 0.00 toks/s]Processed prompts: 100%|██████████| 1/1 [00:01<00:00,  1.08s/it, est. speed input: 1551.93 toks/s, output: 29.63 toks/s]Processed prompts: 100%|██████████| 1/1 [00:01<00:00,  1.08s/it, est. speed input: 1551.93 toks/s, output: 29.63 toks/s]Processed prompts: 100%|██████████| 1/1 [00:01<00:00,  1.08s/it, est. speed input: 1551.93 toks/s, output: 29.63 toks/s]
CCH adalah singkatan dari CPU Core Hour, yang merupakan metrik penggunaan core thread CPU per jam pada ALELEON Supercomputer.

    📚 Sumber (3 chunks):
    • Core Hour  (https://wiki.efisonlt.com/wiki/Core_Hour)
    • Software Komputasi dari User  (https://wiki.efisonlt.com/wiki/Software_Komputasi_dari_User)
    • AI Compilation  (https://wiki.efisonlt.com/wiki/AI_Compilation)

============================================================
[Q22/197] Apa itu GH?
------------------------------------------------------------
Rendering prompts:   0%|          | 0/1 [00:00<?, ?it/s]Rendering prompts: 100%|██████████| 1/1 [00:00<00:00, 1215.39it/s]
Processed prompts:   0%|          | 0/1 [00:00<?, ?it/s, est. speed input: 0.00 toks/s, output: 0.00 toks/s]Processed prompts: 100%|██████████| 1/1 [00:00<00:00,  2.51it/s, est. speed input: 1871.50 toks/s, output: 32.61 toks/s]Processed prompts: 100%|██████████| 1/1 [00:00<00:00,  2.51it/s, est. speed input: 1871.50 toks/s, output: 32.61 toks/s]Processed prompts: 100%|██████████| 1/1 [00:00<00:00,  2.51it/s, est. speed input: 1871.50 toks/s, output: 32.61 toks/s]
Saya tidak menemukan informasi tersebut di sistem.

    📚 Sumber (3 chunks):
    • Software Komputasi dari User  (https://wiki.efisonlt.com/wiki/Software_Komputasi_dari_User)
    • AI Compilation  (https://wiki.efisonlt.com/wiki/AI_Compilation)
    • AutoGluon  (https://wiki.efisonlt.com/wiki/AutoGluon)

============================================================
[Q23/197] Berapa harga CCH untuk golongan perseorangan akademia?
------------------------------------------------------------
Rendering prompts:   0%|          | 0/1 [00:00<?, ?it/s]Rendering prompts: 100%|██████████| 1/1 [00:00<00:00, 454.22it/s]
Processed prompts:   0%|          | 0/1 [00:00<?, ?it/s, est. speed input: 0.00 toks/s, output: 0.00 toks/s]Processed prompts: 100%|██████████| 1/1 [00:00<00:00,  1.84it/s, est. speed input: 6039.85 toks/s, output: 16.52 toks/s]Processed prompts: 100%|██████████| 1/1 [00:00<00:00,  1.84it/s, est. speed input: 6039.85 toks/s, output: 16.52 toks/s]Processed prompts: 100%|██████████| 1/1 [00:00<00:00,  1.84it/s, est. speed input: 6039.85 toks/s, output: 16.52 toks/s]
Rp555,-/CCH

    📚 Sumber (3 chunks):
    • Core Hour  (https://wiki.efisonlt.com/wiki/Core_Hour)
    • Pendaftaran dan Biaya ALELEON Supercomputer  (https://wiki.efisonlt.com/wiki/Pendaftaran_dan_Biaya_ALELEON_Supercomputer)
    • Software Komputasi dari User  (https://wiki.efisonlt.com/wiki/Software_Komputasi_dari_User)

============================================================
[Q24/197] Berapa harga GH untuk golongan perseorangan non-akademia?
------------------------------------------------------------
Rendering prompts:   0%|          | 0/1 [00:00<?, ?it/s]Rendering prompts: 100%|██████████| 1/1 [00:00<00:00, 654.64it/s]
Processed prompts:   0%|          | 0/1 [00:00<?, ?it/s, est. speed input: 0.00 toks/s, output: 0.00 toks/s]Processed prompts: 100%|██████████| 1/1 [00:00<00:00,  2.03it/s, est. speed input: 4587.43 toks/s, output: 18.23 toks/s]Processed prompts: 100%|██████████| 1/1 [00:00<00:00,  2.03it/s, est. speed input: 4587.43 toks/s, output: 18.23 toks/s]Processed prompts: 100%|██████████| 1/1 [00:00<00:00,  2.02it/s, est. speed input: 4587.43 toks/s, output: 18.23 toks/s]
Rp8585,-/GH

    📚 Sumber (3 chunks):
    • Software Komputasi dari User  (https://wiki.efisonlt.com/wiki/Software_Komputasi_dari_User)
    • AI Compilation  (https://wiki.efisonlt.com/wiki/AI_Compilation)
    • Pendaftaran dan Biaya ALELEON Supercomputer  (https://wiki.efisonlt.com/wiki/Pendaftaran_dan_Biaya_ALELEON_Supercomputer)

============================================================
[Q25/197] Berapa storage HOME yang didapatkan pengguna perseorangan?
------------------------------------------------------------
Rendering prompts:   0%|          | 0/1 [00:00<?, ?it/s]Rendering prompts: 100%|██████████| 1/1 [00:00<00:00, 534.10it/s]
Processed prompts:   0%|          | 0/1 [00:00<?, ?it/s, est. speed input: 0.00 toks/s, output: 0.00 toks/s]Processed prompts: 100%|██████████| 1/1 [00:00<00:00,  1.12it/s, est. speed input: 3153.18 toks/s, output: 21.32 toks/s]Processed prompts: 100%|██████████| 1/1 [00:00<00:00,  1.12it/s, est. speed input: 3153.18 toks/s, output: 21.32 toks/s]Processed prompts: 100%|██████████| 1/1 [00:00<00:00,  1.12it/s, est. speed input: 3153.18 toks/s, output: 21.32 toks/s]
Storage HOME yang didapatkan pengguna perseorangan adalah 150 GiB.

    📚 Sumber (3 chunks):
    • Pendaftaran dan Biaya ALELEON Supercomputer  (https://wiki.efisonlt.com/wiki/Pendaftaran_dan_Biaya_ALELEON_Supercomputer)
    • Software Komputasi dari User  (https://wiki.efisonlt.com/wiki/Software_Komputasi_dari_User)
    • Upload - Download File ALELEON  (https://wiki.efisonlt.com/wiki/Upload_-_Download_File_ALELEON)

============================================================
[Q26/197] Berapa masa aktif akun perseorangan?
------------------------------------------------------------
Rendering prompts:   0%|          | 0/1 [00:00<?, ?it/s]Rendering prompts: 100%|██████████| 1/1 [00:00<00:00, 320.25it/s]
Processed prompts:   0%|          | 0/1 [00:00<?, ?it/s, est. speed input: 0.00 toks/s, output: 0.00 toks/s]Processed prompts: 100%|██████████| 1/1 [00:01<00:00,  1.14s/it, est. speed input: 3760.05 toks/s, output: 21.93 toks/s]Processed prompts: 100%|██████████| 1/1 [00:01<00:00,  1.14s/it, est. speed input: 3760.05 toks/s, output: 21.93 toks/s]Processed prompts: 100%|██████████| 1/1 [00:01<00:00,  1.14s/it, est. speed input: 3760.05 toks/s, output: 21.93 toks/s]
Masa aktif akun perseorangan adalah 1 tahun semenjak pembelian terakhir Kuota Core Hour.

    📚 Sumber (3 chunks):
    • Pendaftaran dan Biaya ALELEON Supercomputer  (https://wiki.efisonlt.com/wiki/Pendaftaran_dan_Biaya_ALELEON_Supercomputer)
    • Migrasi Akun dan Data Mk.III ke Mk.V  (https://wiki.efisonlt.com/wiki/Migrasi_Akun_dan_Data_Mk.III_ke_Mk.V)
    • Komputasi Python  (https://wiki.efisonlt.com/wiki/Komputasi_Python)

============================================================
[Q27/197] Apa rumus menghitung CPU Core Hour?
------------------------------------------------------------
Rendering prompts:   0%|          | 0/1 [00:00<?, ?it/s]Rendering prompts: 100%|██████████| 1/1 [00:00<00:00, 287.38it/s]
Processed prompts:   0%|          | 0/1 [00:00<?, ?it/s, est. speed input: 0.00 toks/s, output: 0.00 toks/s]Processed prompts: 100%|██████████| 1/1 [00:02<00:00,  2.05s/it, est. speed input: 2513.12 toks/s, output: 22.49 toks/s]Processed prompts: 100%|██████████| 1/1 [00:02<00:00,  2.05s/it, est. speed input: 2513.12 toks/s, output: 22.49 toks/s]Processed prompts: 100%|██████████| 1/1 [00:02<00:00,  2.05s/it, est. speed input: 2513.12 toks/s, output: 22.49 toks/s]
Slurm CPU core minutes = jumlah alokasi core CPU * waktu job berjalan (satuan menit)
     ALELEON CPU Core Hour (CCH) = Slurm Core Minutes / 60

    📚 Sumber (3 chunks):
    • Core Hour  (https://wiki.efisonlt.com/wiki/Core_Hour)
    • Sausage dan Aturan Metrik Penggunaan ALELEON  (https://wiki.efisonlt.com/wiki/Sausage_dan_Aturan_Metrik_Penggunaan_ALELEON)
    • Pendaftaran dan Biaya ALELEON Supercomputer  (https://wiki.efisonlt.com/wiki/Pendaftaran_dan_Biaya_ALELEON_Supercomputer)

============================================================
[Q28/197] Apa nama modul GROMACS versi CPU 2025.3?
------------------------------------------------------------
Rendering prompts:   0%|          | 0/1 [00:00<?, ?it/s]Rendering prompts: 100%|██████████| 1/1 [00:00<00:00, 169.51it/s]
Processed prompts:   0%|          | 0/1 [00:00<?, ?it/s, est. speed input: 0.00 toks/s, output: 0.00 toks/s]Processed prompts: 100%|██████████| 1/1 [00:02<00:00,  2.67s/it, est. speed input: 3380.83 toks/s, output: 8.62 toks/s]Processed prompts: 100%|██████████| 1/1 [00:02<00:00,  2.67s/it, est. speed input: 3380.83 toks/s, output: 8.62 toks/s]Processed prompts: 100%|██████████| 1/1 [00:02<00:00,  2.67s/it, est. speed input: 3380.83 toks/s, output: 8.62 toks/s]
gromacs/2025.3-gcc-15.2.0-lyo

    📚 Sumber (3 chunks):
    • GROMACS  (https://wiki.efisonlt.com/wiki/GROMACS)
    • CP2K  (https://wiki.efisonlt.com/wiki/CP2K)
    • Daftar Software Komputasi dan Tutorial Penggunaan  (https://wiki.efisonlt.com/wiki/Daftar_Software_Komputasi_dan_Tutorial_Penggunaan)

============================================================
[Q29/197] Apa nama modul GROMACS versi GPU 2025.3?
------------------------------------------------------------
Rendering prompts:   0%|          | 0/1 [00:00<?, ?it/s]Rendering prompts: 100%|██████████| 1/1 [00:00<00:00, 136.25it/s]
Processed prompts:   0%|          | 0/1 [00:00<?, ?it/s, est. speed input: 0.00 toks/s, output: 0.00 toks/s]Processed prompts: 100%|██████████| 1/1 [00:03<00:00,  3.09s/it, est. speed input: 3766.25 toks/s, output: 10.02 toks/s]Processed prompts: 100%|██████████| 1/1 [00:03<00:00,  3.09s/it, est. speed input: 3766.25 toks/s, output: 10.02 toks/s]Processed prompts: 100%|██████████| 1/1 [00:03<00:00,  3.09s/it, est. speed input: 3766.25 toks/s, output: 10.02 toks/s]
gromacs/2025.3-gcc-13.4.0-cuda-12.9.0-pue

    📚 Sumber (3 chunks):
    • GROMACS  (https://wiki.efisonlt.com/wiki/GROMACS)
    • LAMMPS  (https://wiki.efisonlt.com/wiki/LAMMPS)
    • CP2K  (https://wiki.efisonlt.com/wiki/CP2K)

============================================================
[Q30/197] Versi ORCA berapa yang tersedia di ALELEON?
------------------------------------------------------------
Rendering prompts:   0%|          | 0/1 [00:00<?, ?it/s]Rendering prompts: 100%|██████████| 1/1 [00:00<00:00, 328.84it/s]
Processed prompts:   0%|          | 0/1 [00:00<?, ?it/s, est. speed input: 0.00 toks/s, output: 0.00 toks/s]Processed prompts: 100%|██████████| 1/1 [00:01<00:00,  1.24s/it, est. speed input: 3397.88 toks/s, output: 16.94 toks/s]Processed prompts: 100%|██████████| 1/1 [00:01<00:00,  1.24s/it, est. speed input: 3397.88 toks/s, output: 16.94 toks/s]Processed prompts: 100%|██████████| 1/1 [00:01<00:00,  1.24s/it, est. speed input: 3397.88 toks/s, output: 16.94 toks/s]
Versi ORCA yang tersedia di ALELEON adalah 6.0.1.

    📚 Sumber (3 chunks):
    • EUREKA!  (https://wiki.efisonlt.com/wiki/EUREKA!)
    • ORCA  (https://wiki.efisonlt.com/wiki/ORCA)
    • EUREKA! Periode 2  (https://wiki.efisonlt.com/wiki/EUREKA!_Periode_2)

============================================================
[Q31/197] Apa nama modul Quantum ESPRESSO 7.4.1?
------------------------------------------------------------
Rendering prompts:   0%|          | 0/1 [00:00<?, ?it/s]Rendering prompts: 100%|██████████| 1/1 [00:00<00:00, 152.69it/s]
Processed prompts:   0%|          | 0/1 [00:00<?, ?it/s, est. speed input: 0.00 toks/s, output: 0.00 toks/s]Processed prompts: 100%|██████████| 1/1 [00:03<00:00,  3.02s/it, est. speed input: 3336.69 toks/s, output: 7.29 toks/s]Processed prompts: 100%|██████████| 1/1 [00:03<00:00,  3.02s/it, est. speed input: 3336.69 toks/s, output: 7.29 toks/s]Processed prompts: 100%|██████████| 1/1 [00:03<00:00,  3.02s/it, est. speed input: 3336.69 toks/s, output: 7.29 toks/s]
quantum-espresso/7.4.1-gcc-15.2.0-c4j

    📚 Sumber (3 chunks):
    • Quantum ESPRESSO  (https://wiki.efisonlt.com/wiki/Quantum_ESPRESSO)
    • BoltzTraP2  (https://wiki.efisonlt.com/wiki/BoltzTraP2)
    • SIESTA  (https://wiki.efisonlt.com/wiki/SIESTA)

============================================================
[Q32/197] Apa nama modul CP2K versi GPU?
------------------------------------------------------------
Rendering prompts:   0%|          | 0/1 [00:00<?, ?it/s]Rendering prompts: 100%|██████████| 1/1 [00:00<00:00, 174.38it/s]
Processed prompts:   0%|          | 0/1 [00:00<?, ?it/s, est. speed input: 0.00 toks/s, output: 0.00 toks/s]Processed prompts: 100%|██████████| 1/1 [00:03<00:00,  3.24s/it, est. speed input: 2723.80 toks/s, output: 13.57 toks/s]Processed prompts: 100%|██████████| 1/1 [00:03<00:00,  3.24s/it, est. speed input: 2723.80 toks/s, output: 13.57 toks/s]Processed prompts: 100%|██████████| 1/1 [00:03<00:00,  3.24s/it, est. speed input: 2723.80 toks/s, output: 13.57 toks/s]
Nama modul CP2K versi GPU adalah cp2k/2025.2-gcc-13.4.0-cuda-12.9.0-k6i.

    📚 Sumber (3 chunks):
    • CP2K  (https://wiki.efisonlt.com/wiki/CP2K)
    • GAMESS  (https://wiki.efisonlt.com/wiki/GAMESS)
    • LAMMPS  (https://wiki.efisonlt.com/wiki/LAMMPS)

============================================================
[Q33/197] Versi LAMMPS berapa yang tersedia di ALELEON?
------------------------------------------------------------
Rendering prompts:   0%|          | 0/1 [00:00<?, ?it/s]Rendering prompts: 100%|██████████| 1/1 [00:00<00:00, 257.81it/s]
Processed prompts:   0%|          | 0/1 [00:00<?, ?it/s, est. speed input: 0.00 toks/s, output: 0.00 toks/s]Processed prompts: 100%|██████████| 1/1 [00:02<00:00,  2.54s/it, est. speed input: 2229.34 toks/s, output: 20.89 toks/s]Processed prompts: 100%|██████████| 1/1 [00:02<00:00,  2.54s/it, est. speed input: 2229.34 toks/s, output: 20.89 toks/s]Processed prompts: 100%|██████████| 1/1 [00:02<00:00,  2.54s/it, est. speed input: 2229.34 toks/s, output: 20.89 toks/s]
Versi LAMMPS yang tersedia di ALELEON adalah:

     - LAMMPS 22 July 2025 (CPU)
     - LAMMPS 22 July 2025 (GPU)

    📚 Sumber (3 chunks):
    • LAMMPS  (https://wiki.efisonlt.com/wiki/LAMMPS)
    • Daftar Software Komputasi dan Tutorial Penggunaan  (https://wiki.efisonlt.com/wiki/Daftar_Software_Komputasi_dan_Tutorial_Penggunaan)
    • Spesifikasi ALELEON Supercomputer  (https://wiki.efisonlt.com/wiki/Spesifikasi_ALELEON_Supercomputer)

============================================================
[Q34/197] Apa nama modul SIESTA yang tersedia?
------------------------------------------------------------
Rendering prompts:   0%|          | 0/1 [00:00<?, ?it/s]Rendering prompts: 100%|██████████| 1/1 [00:00<00:00, 418.51it/s]
Processed prompts:   0%|          | 0/1 [00:00<?, ?it/s, est. speed input: 0.00 toks/s, output: 0.00 toks/s]Processed prompts: 100%|██████████| 1/1 [00:01<00:00,  1.05s/it, est. speed input: 2987.06 toks/s, output: 20.89 toks/s]Processed prompts: 100%|██████████| 1/1 [00:01<00:00,  1.05s/it, est. speed input: 2987.06 toks/s, output: 20.89 toks/s]Processed prompts: 100%|██████████| 1/1 [00:01<00:00,  1.05s/it, est. speed input: 2987.06 toks/s, output: 20.89 toks/s]
SIESTA/5.4.1-GCC14.2-AOCL5.1

    📚 Sumber (3 chunks):
    • SIESTA  (https://wiki.efisonlt.com/wiki/SIESTA)
    • Software Komputasi dari User  (https://wiki.efisonlt.com/wiki/Software_Komputasi_dari_User)
    • Komputasi Python dengan Python venv User  (https://wiki.efisonlt.com/wiki/Komputasi_Python_dengan_Python_venv_User)

============================================================
[Q35/197] Apa nama modul OpenMX 3.9?
------------------------------------------------------------
Rendering prompts:   0%|          | 0/1 [00:00<?, ?it/s]Rendering prompts: 100%|██████████| 1/1 [00:00<00:00, 149.65it/s]
Processed prompts:   0%|          | 0/1 [00:00<?, ?it/s, est. speed input: 0.00 toks/s, output: 0.00 toks/s]Processed prompts: 100%|██████████| 1/1 [00:03<00:00,  3.43s/it, est. speed input: 3014.50 toks/s, output: 9.34 toks/s]Processed prompts: 100%|██████████| 1/1 [00:03<00:00,  3.43s/it, est. speed input: 3014.50 toks/s, output: 9.34 toks/s]Processed prompts: 100%|██████████| 1/1 [00:03<00:00,  3.43s/it, est. speed input: 3014.50 toks/s, output: 9.34 toks/s]
Nama modul OpenMX 3.9 adalah openmx/3.9-gcc-13.4.0-4qo.

    📚 Sumber (3 chunks):
    • OpenMX  (https://wiki.efisonlt.com/wiki/OpenMX)
    • DFTB%2B  (https://wiki.efisonlt.com/wiki/DFTB%2B)
    • GROMACS  (https://wiki.efisonlt.com/wiki/GROMACS)

============================================================
[Q36/197] Apa nama modul PHASE/0 2025?
------------------------------------------------------------
Rendering prompts:   0%|          | 0/1 [00:00<?, ?it/s]Rendering prompts: 100%|██████████| 1/1 [00:00<00:00, 217.61it/s]
Processed prompts:   0%|          | 0/1 [00:00<?, ?it/s, est. speed input: 0.00 toks/s, output: 0.00 toks/s]Processed prompts: 100%|██████████| 1/1 [00:02<00:00,  2.00s/it, est. speed input: 3560.56 toks/s, output: 10.49 toks/s]Processed prompts: 100%|██████████| 1/1 [00:02<00:00,  2.00s/it, est. speed input: 3560.56 toks/s, output: 10.49 toks/s]Processed prompts: 100%|██████████| 1/1 [00:02<00:00,  2.00s/it, est. speed input: 3560.56 toks/s, output: 10.49 toks/s]
PHASE0/2025-GCC14.2-AOCL5.1

    📚 Sumber (3 chunks):
    • PHASE/0  (https://wiki.efisonlt.com/wiki/PHASE/0)
    • CP2K  (https://wiki.efisonlt.com/wiki/CP2K)
    • EUREKA! Periode 2  (https://wiki.efisonlt.com/wiki/EUREKA!_Periode_2)

============================================================
[Q37/197] Versi COMCOT berapa yang tersedia?
------------------------------------------------------------
Rendering prompts:   0%|          | 0/1 [00:00<?, ?it/s]Rendering prompts: 100%|██████████| 1/1 [00:00<00:00, 236.35it/s]
Processed prompts:   0%|          | 0/1 [00:00<?, ?it/s, est. speed input: 0.00 toks/s, output: 0.00 toks/s]Processed prompts: 100%|██████████| 1/1 [00:01<00:00,  1.58s/it, est. speed input: 3494.52 toks/s, output: 13.94 toks/s]Processed prompts: 100%|██████████| 1/1 [00:01<00:00,  1.58s/it, est. speed input: 3494.52 toks/s, output: 13.94 toks/s]Processed prompts: 100%|██████████| 1/1 [00:01<00:00,  1.58s/it, est. speed input: 3494.52 toks/s, output: 13.94 toks/s]
Versi COMCOT yang tersedia di ALELEON Supercomputer adalah 1.7.

    📚 Sumber (3 chunks):
    • COMCOT  (https://wiki.efisonlt.com/wiki/COMCOT)
    • Software Komputasi dari User  (https://wiki.efisonlt.com/wiki/Software_Komputasi_dari_User)
    • CP2K  (https://wiki.efisonlt.com/wiki/CP2K)

============================================================
[Q38/197] Apa nama modul DFTB+ yang tersedia?
------------------------------------------------------------
Rendering prompts:   0%|          | 0/1 [00:00<?, ?it/s]Rendering prompts: 100%|██████████| 1/1 [00:00<00:00, 236.21it/s]
Processed prompts:   0%|          | 0/1 [00:00<?, ?it/s, est. speed input: 0.00 toks/s, output: 0.00 toks/s]Processed prompts: 100%|██████████| 1/1 [00:01<00:00,  1.71s/it, est. speed input: 3511.25 toks/s, output: 12.83 toks/s]Processed prompts: 100%|██████████| 1/1 [00:01<00:00,  1.71s/it, est. speed input: 3511.25 toks/s, output: 12.83 toks/s]Processed prompts: 100%|██████████| 1/1 [00:01<00:00,  1.71s/it, est. speed input: 3511.25 toks/s, output: 12.83 toks/s]
DFTB+/22.2-GCC11.3-AOCL4.0

    📚 Sumber (3 chunks):
    • DFTB%2B  (https://wiki.efisonlt.com/wiki/DFTB%2B)
    • Software Komputasi dari User  (https://wiki.efisonlt.com/wiki/Software_Komputasi_dari_User)
    • Katalog Software ALELEON Supercomputer  (https://wiki.efisonlt.com/wiki/Katalog_Software_ALELEON_Supercomputer)

============================================================
[Q39/197] Apa nama modul NAMD versi GPU?
------------------------------------------------------------
Rendering prompts:   0%|          | 0/1 [00:00<?, ?it/s]Rendering prompts: 100%|██████████| 1/1 [00:00<00:00, 142.85it/s]
Processed prompts:   0%|          | 0/1 [00:00<?, ?it/s, est. speed input: 0.00 toks/s, output: 0.00 toks/s]Processed prompts: 100%|██████████| 1/1 [00:03<00:00,  3.43s/it, est. speed input: 3055.79 toks/s, output: 8.75 toks/s]Processed prompts: 100%|██████████| 1/1 [00:03<00:00,  3.43s/it, est. speed input: 3055.79 toks/s, output: 8.75 toks/s]Processed prompts: 100%|██████████| 1/1 [00:03<00:00,  3.43s/it, est. speed input: 3055.79 toks/s, output: 8.75 toks/s]
NAMD versi GPU menggunakan modul namd/2.14-GCC10-FFTW3F-CUDA11.

    📚 Sumber (3 chunks):
    • NAMD  (https://wiki.efisonlt.com/wiki/NAMD)
    • LAMMPS  (https://wiki.efisonlt.com/wiki/LAMMPS)
    • GROMACS  (https://wiki.efisonlt.com/wiki/GROMACS)

============================================================
[Q40/197] Apa nama modul NWChem yang tersedia?
------------------------------------------------------------
Rendering prompts:   0%|          | 0/1 [00:00<?, ?it/s]Rendering prompts: 100%|██████████| 1/1 [00:00<00:00, 233.95it/s]
Processed prompts:   0%|          | 0/1 [00:00<?, ?it/s, est. speed input: 0.00 toks/s, output: 0.00 toks/s]Processed prompts: 100%|██████████| 1/1 [00:02<00:00,  2.02s/it, est. speed input: 3100.97 toks/s, output: 14.83 toks/s]Processed prompts: 100%|██████████| 1/1 [00:02<00:00,  2.02s/it, est. speed input: 3100.97 toks/s, output: 14.83 toks/s]Processed prompts: 100%|██████████| 1/1 [00:02<00:00,  2.02s/it, est. speed input: 3100.97 toks/s, output: 14.83 toks/s]
Nama modul NWChem yang tersedia adalah **nwchem/7.0.2-GCC10-OMP-MKL**.

    📚 Sumber (3 chunks):
    • NWChem  (https://wiki.efisonlt.com/wiki/NWChem)
    • Software Komputasi dari User  (https://wiki.efisonlt.com/wiki/Software_Komputasi_dari_User)
    • ACPYPE  (https://wiki.efisonlt.com/wiki/ACPYPE)

============================================================
[Q41/197] Versi Python default dari Anaconda3 2025.06-1 apa?
------------------------------------------------------------
Rendering prompts:   0%|          | 0/1 [00:00<?, ?it/s]Rendering prompts: 100%|██████████| 1/1 [00:00<00:00, 182.21it/s]
Processed prompts:   0%|          | 0/1 [00:00<?, ?it/s, est. speed input: 0.00 toks/s, output: 0.00 toks/s]Processed prompts: 100%|██████████| 1/1 [00:02<00:00,  2.54s/it, est. speed input: 3216.06 toks/s, output: 11.01 toks/s]Processed prompts: 100%|██████████| 1/1 [00:02<00:00,  2.54s/it, est. speed input: 3216.06 toks/s, output: 11.01 toks/s]Processed prompts: 100%|██████████| 1/1 [00:02<00:00,  2.54s/it, est. speed input: 3216.06 toks/s, output: 11.01 toks/s]
Versi Python default dari Anaconda3 2025.06-1 adalah 3.13.4.

    📚 Sumber (3 chunks):
    • Komputasi Python dengan Conda Environment User  (https://wiki.efisonlt.com/wiki/Komputasi_Python_dengan_Conda_Environment_User)
    • XUIN Temporary  (https://wiki.efisonlt.com/wiki/XUIN_Temporary)
    • Komputasi Python  (https://wiki.efisonlt.com/wiki/Komputasi_Python)

============================================================
[Q42/197] Perintah apa untuk mengaktifkan Mamba 23.11.0-0?
------------------------------------------------------------
Rendering prompts:   0%|          | 0/1 [00:00<?, ?it/s]Rendering prompts: 100%|██████████| 1/1 [00:00<00:00, 143.21it/s]
Processed prompts:   0%|          | 0/1 [00:00<?, ?it/s, est. speed input: 0.00 toks/s, output: 0.00 toks/s]Processed prompts: 100%|██████████| 1/1 [00:01<00:00,  1.92s/it, est. speed input: 5266.22 toks/s, output: 10.92 toks/s]Processed prompts: 100%|██████████| 1/1 [00:01<00:00,  1.92s/it, est. speed input: 5266.22 toks/s, output: 10.92 toks/s]Processed prompts: 100%|██████████| 1/1 [00:01<00:00,  1.92s/it, est. speed input: 5266.22 toks/s, output: 10.92 toks/s]
```bash
     ml Mamba/23.11.0-0
     ```

    📚 Sumber (3 chunks):
    • Komputasi Python dengan Conda Environment User  (https://wiki.efisonlt.com/wiki/Komputasi_Python_dengan_Conda_Environment_User)
    • GMX-MMPBSA  (https://wiki.efisonlt.com/wiki/GMX-MMPBSA)
    • Software Komputasi dari User  (https://wiki.efisonlt.com/wiki/Software_Komputasi_dari_User)

============================================================
[Q43/197] Bagaimana cara membuat modul pyload setelah conda env aktif?
------------------------------------------------------------
Rendering prompts:   0%|          | 0/1 [00:00<?, ?it/s]Rendering prompts: 100%|██████████| 1/1 [00:00<00:00, 243.74it/s]
Processed prompts:   0%|          | 0/1 [00:00<?, ?it/s, est. speed input: 0.00 toks/s, output: 0.00 toks/s]Processed prompts: 100%|██████████| 1/1 [00:02<00:00,  2.34s/it, est. speed input: 2700.25 toks/s, output: 32.89 toks/s]Processed prompts: 100%|██████████| 1/1 [00:02<00:00,  2.34s/it, est. speed input: 2700.25 toks/s, output: 32.89 toks/s]Processed prompts: 100%|██████████| 1/1 [00:02<00:00,  2.34s/it, est. speed input: 2700.25 toks/s, output: 32.89 toks/s]
1. Aktifkan conda env dengan source:
        ```
        source activate [nama-env]
        ```
     2. Buat modul pyload untuk aktivasi conda env berikutnya:
        ```
        (env) $ pyl mod
        ```
     3. Pilih menu no.1
     4. Ikuti alur script.

    📚 Sumber (3 chunks):
    • Komputasi Python dengan Conda Environment User  (https://wiki.efisonlt.com/wiki/Komputasi_Python_dengan_Conda_Environment_User)
    • Komputasi Python dengan Python venv User  (https://wiki.efisonlt.com/wiki/Komputasi_Python_dengan_Python_venv_User)
    • Komputasi Python  (https://wiki.efisonlt.com/wiki/Komputasi_Python)

============================================================
[Q44/197] Perintah apa untuk melihat daftar modul pyload yang tersedia?
------------------------------------------------------------
Rendering prompts:   0%|          | 0/1 [00:00<?, ?it/s]Rendering prompts: 100%|██████████| 1/1 [00:00<00:00, 170.34it/s]
Processed prompts:   0%|          | 0/1 [00:00<?, ?it/s, est. speed input: 0.00 toks/s, output: 0.00 toks/s]Processed prompts: 100%|██████████| 1/1 [00:02<00:00,  2.36s/it, est. speed input: 3968.74 toks/s, output: 3.39 toks/s]Processed prompts: 100%|██████████| 1/1 [00:02<00:00,  2.36s/it, est. speed input: 3968.74 toks/s, output: 3.39 toks/s]Processed prompts: 100%|██████████| 1/1 [00:02<00:00,  2.36s/it, est. speed input: 3968.74 toks/s, output: 3.39 toks/s]
```
     pyl list
     ```

    📚 Sumber (3 chunks):
    • Daftar Environment Python ALELEON  (https://wiki.efisonlt.com/wiki/Daftar_Environment_Python_ALELEON)
    • Katalog Software ALELEON Supercomputer  (https://wiki.efisonlt.com/wiki/Katalog_Software_ALELEON_Supercomputer)
    • Komputasi Python dengan Conda Environment User  (https://wiki.efisonlt.com/wiki/Komputasi_Python_dengan_Conda_Environment_User)

============================================================
[Q45/197] Apa perintah untuk mengaktifkan conda env dengan pyload?
------------------------------------------------------------
Rendering prompts:   0%|          | 0/1 [00:00<?, ?it/s]Rendering prompts: 100%|██████████| 1/1 [00:00<00:00, 121.27it/s]
Processed prompts:   0%|          | 0/1 [00:00<?, ?it/s, est. speed input: 0.00 toks/s, output: 0.00 toks/s]Processed prompts: 100%|██████████| 1/1 [00:04<00:00,  4.37s/it, est. speed input: 2959.14 toks/s, output: 14.41 toks/s]Processed prompts: 100%|██████████| 1/1 [00:04<00:00,  4.37s/it, est. speed input: 2959.14 toks/s, output: 14.41 toks/s]Processed prompts: 100%|██████████| 1/1 [00:04<00:00,  4.37s/it, est. speed input: 2959.14 toks/s, output: 14.41 toks/s]
Untuk mengaktifkan conda env dengan pyload, gunakan perintah berikut:

     ```bash
     $ pyl load [nama-modul]
     ```

     Dimana `[nama-modul]` adalah nama modul pyload yang telah dibuat untuk conda env user.

    📚 Sumber (3 chunks):
    • Komputasi Python dengan Conda Environment User  (https://wiki.efisonlt.com/wiki/Komputasi_Python_dengan_Conda_Environment_User)
    • TRIAL A6  (https://wiki.efisonlt.com/wiki/TRIAL_A6)
    • Software Komputasi Instalasi User  (https://wiki.efisonlt.com/wiki/Software_Komputasi_Instalasi_User)

============================================================
[Q46/197] Di mana conda env dibuat secara default?
------------------------------------------------------------
Rendering prompts:   0%|          | 0/1 [00:00<?, ?it/s]Rendering prompts: 100%|██████████| 1/1 [00:00<00:00, 211.77it/s]
Processed prompts:   0%|          | 0/1 [00:00<?, ?it/s, est. speed input: 0.00 toks/s, output: 0.00 toks/s]Processed prompts: 100%|██████████| 1/1 [00:00<00:00,  1.84it/s, est. speed input: 11590.87 toks/s, output: 33.04 toks/s]Processed prompts: 100%|██████████| 1/1 [00:00<00:00,  1.84it/s, est. speed input: 11590.87 toks/s, output: 33.04 toks/s]Processed prompts: 100%|██████████| 1/1 [00:00<00:00,  1.84it/s, est. speed input: 11590.87 toks/s, output: 33.04 toks/s]
Conda env dibuat secara default di direktori `~/.conda/envs`.

    📚 Sumber (3 chunks):
    • Komputasi Python dengan Conda Environment User  (https://wiki.efisonlt.com/wiki/Komputasi_Python_dengan_Conda_Environment_User)
    • Komputasi Python dengan Python venv User  (https://wiki.efisonlt.com/wiki/Komputasi_Python_dengan_Python_venv_User)
    • Komputasi Python  (https://wiki.efisonlt.com/wiki/Komputasi_Python)

============================================================
[Q47/197] Apa perintah untuk mencari modul software berdasarkan keyword?
------------------------------------------------------------
Rendering prompts:   0%|          | 0/1 [00:00<?, ?it/s]Rendering prompts: 100%|██████████| 1/1 [00:00<00:00, 226.82it/s]
Processed prompts:   0%|          | 0/1 [00:00<?, ?it/s, est. speed input: 0.00 toks/s, output: 0.00 toks/s]Processed prompts: 100%|██████████| 1/1 [00:01<00:00,  1.98s/it, est. speed input: 3330.80 toks/s, output: 12.60 toks/s]Processed prompts: 100%|██████████| 1/1 [00:01<00:00,  1.98s/it, est. speed input: 3330.80 toks/s, output: 12.60 toks/s]Processed prompts: 100%|██████████| 1/1 [00:01<00:00,  1.99s/it, est. speed input: 3330.80 toks/s, output: 12.60 toks/s]
Perintah untuk mencari modul software berdasarkan keyword adalah:
     ```
     ml av keyword
     ```

    📚 Sumber (3 chunks):
    • Katalog Software ALELEON Supercomputer  (https://wiki.efisonlt.com/wiki/Katalog_Software_ALELEON_Supercomputer)
    • EasyBuild  (https://wiki.efisonlt.com/wiki/EasyBuild)
    • Troubleshooting dan Support  (https://wiki.efisonlt.com/wiki/Troubleshooting_dan_Support)

============================================================
[Q48/197] Apa perintah untuk menonaktifkan semua modul software aktif?
------------------------------------------------------------
Rendering prompts:   0%|          | 0/1 [00:00<?, ?it/s]Rendering prompts: 100%|██████████| 1/1 [00:00<00:00, 237.41it/s]
Processed prompts:   0%|          | 0/1 [00:00<?, ?it/s, est. speed input: 0.00 toks/s, output: 0.00 toks/s]Processed prompts: 100%|██████████| 1/1 [00:00<00:00,  4.01it/s, est. speed input: 26538.74 toks/s, output: 32.10 toks/s]Processed prompts: 100%|██████████| 1/1 [00:00<00:00,  4.01it/s, est. speed input: 26538.74 toks/s, output: 32.10 toks/s]Processed prompts: 100%|██████████| 1/1 [00:00<00:00,  4.01it/s, est. speed input: 26538.74 toks/s, output: 32.10 toks/s]
```
     ml purge
     ```

    📚 Sumber (3 chunks):
    • Katalog Software ALELEON Supercomputer  (https://wiki.efisonlt.com/wiki/Katalog_Software_ALELEON_Supercomputer)
    • EasyBuild  (https://wiki.efisonlt.com/wiki/EasyBuild)
    • Troubleshooting dan Support  (https://wiki.efisonlt.com/wiki/Troubleshooting_dan_Support)

============================================================
[Q49/197] Apa perintah untuk mengganti modul software aktif?
------------------------------------------------------------
Rendering prompts:   0%|          | 0/1 [00:00<?, ?it/s]Rendering prompts: 100%|██████████| 1/1 [00:00<00:00, 257.22it/s]
Processed prompts:   0%|          | 0/1 [00:00<?, ?it/s, est. speed input: 0.00 toks/s, output: 0.00 toks/s]Processed prompts: 100%|██████████| 1/1 [00:01<00:00,  1.05s/it, est. speed input: 6305.08 toks/s, output: 33.39 toks/s]Processed prompts: 100%|██████████| 1/1 [00:01<00:00,  1.05s/it, est. speed input: 6305.08 toks/s, output: 33.39 toks/s]Processed prompts: 100%|██████████| 1/1 [00:01<00:00,  1.05s/it, est. speed input: 6305.08 toks/s, output: 33.39 toks/s]
Perintah untuk mengganti modul software aktif adalah:

     ```
     $ ml switch modul-aktif modul-pengganti
     ```

    📚 Sumber (3 chunks):
    • Katalog Software ALELEON Supercomputer  (https://wiki.efisonlt.com/wiki/Katalog_Software_ALELEON_Supercomputer)
    • EasyBuild  (https://wiki.efisonlt.com/wiki/EasyBuild)
    • Troubleshooting dan Support  (https://wiki.efisonlt.com/wiki/Troubleshooting_dan_Support)

============================================================
[Q50/197] Versi GCC berapa saja yang tersedia di ALELEON?
------------------------------------------------------------
Rendering prompts:   0%|          | 0/1 [00:00<?, ?it/s]Rendering prompts: 100%|██████████| 1/1 [00:00<00:00, 211.28it/s]
Processed prompts:   0%|          | 0/1 [00:00<?, ?it/s, est. speed input: 0.00 toks/s, output: 0.00 toks/s]Processed prompts: 100%|██████████| 1/1 [00:01<00:00,  1.66s/it, est. speed input: 4052.98 toks/s, output: 7.83 toks/s]Processed prompts: 100%|██████████| 1/1 [00:01<00:00,  1.66s/it, est. speed input: 4052.98 toks/s, output: 7.83 toks/s]Processed prompts: 100%|██████████| 1/1 [00:01<00:00,  1.66s/it, est. speed input: 4052.98 toks/s, output: 7.83 toks/s]
Saya tidak menemukan informasi tersebut di sistem.

    📚 Sumber (3 chunks):
    • ALELEON Supercomputer  (https://wiki.efisonlt.com/wiki/ALELEON_Supercomputer)
    • SW-GXN  (https://wiki.efisonlt.com/wiki/SW-GXN)
    • Pengenalan Menggunakan ALELEON Supercomputer  (https://wiki.efisonlt.com/wiki/Pengenalan_Menggunakan_ALELEON_Supercomputer)

============================================================
[Q51/197] Apa saja pilihan cara menjalankan komputasi Python dengan conda env di ALELEON?
------------------------------------------------------------
Rendering prompts:   0%|          | 0/1 [00:00<?, ?it/s]Rendering prompts: 100%|██████████| 1/1 [00:00<00:00, 102.23it/s]
Processed prompts:   0%|          | 0/1 [00:00<?, ?it/s, est. speed input: 0.00 toks/s, output: 0.00 toks/s]Processed prompts: 100%|██████████| 1/1 [00:07<00:00,  7.02s/it, est. speed input: 2268.35 toks/s, output: 9.11 toks/s]Processed prompts: 100%|██████████| 1/1 [00:07<00:00,  7.02s/it, est. speed input: 2268.35 toks/s, output: 9.11 toks/s]Processed prompts: 100%|██████████| 1/1 [00:07<00:00,  7.02s/it, est. speed input: 2268.35 toks/s, output: 9.11 toks/s]
Berikut adalah pilihan cara menjalankan komputasi Python dengan conda env di ALELEON:

     1. Batch Job melalui Job Composer EWS
     2. Batch Job melalui Slurm di Terminal
     3. Sesi Interaktif JupyterLab

    📚 Sumber (3 chunks):
    • TRIAL A6  (https://wiki.efisonlt.com/wiki/TRIAL_A6)
    • Komputasi Python dengan Conda Environment User  (https://wiki.efisonlt.com/wiki/Komputasi_Python_dengan_Conda_Environment_User)
    • CP2K  (https://wiki.efisonlt.com/wiki/CP2K)

============================================================
[Q52/197] Apa perbedaan antara menjalankan batch job via Job Composer EWS dan via terminal Slurm?
------------------------------------------------------------
Rendering prompts:   0%|          | 0/1 [00:00<?, ?it/s]Rendering prompts: 100%|██████████| 1/1 [00:00<00:00, 248.40it/s]
Processed prompts:   0%|          | 0/1 [00:00<?, ?it/s, est. speed input: 0.00 toks/s, output: 0.00 toks/s]Processed prompts: 100%|██████████| 1/1 [00:08<00:00,  8.00s/it, est. speed input: 752.56 toks/s, output: 29.24 toks/s]Processed prompts: 100%|██████████| 1/1 [00:08<00:00,  8.00s/it, est. speed input: 752.56 toks/s, output: 29.24 toks/s]Processed prompts: 100%|██████████| 1/1 [00:08<00:00,  8.00s/it, est. speed input: 752.56 toks/s, output: 29.24 toks/s]
Untuk menjalankan batch job di ALELEON, Anda memiliki dua pilihan utama:

     1. Melalui Job Composer EWS:
        - Akses melalui menu Jobs > Job Composer di EFIRO Web Service.
        - Memungkinkan Anda membuat job dengan menggunakan template yang telah disediakan.
        - Memudahkan pengguna untuk membuat dan mengelola job tanpa perlu mengetik perintah command line.
        - Cocok untuk pengguna yang lebih tidak familiar dengan command line.

[...]
Rendering prompts:   0%|          | 0/1 [00:00<?, ?it/s]Rendering prompts: 100%|██████████| 1/1 [00:00<00:00, 660.10it/s]
Processed prompts:   0%|          | 0/1 [00:00<?, ?it/s, est. speed input: 0.00 toks/s, output: 0.00 toks/s]Processed prompts: 100%|██████████| 1/1 [00:00<00:00,  1.87it/s, est. speed input: 3291.06 toks/s, output: 24.28 toks/s]Processed prompts: 100%|██████████| 1/1 [00:00<00:00,  1.87it/s, est. speed input: 3291.06 toks/s, output: 24.28 toks/s]Processed prompts: 100%|██████████| 1/1 [00:00<00:00,  1.87it/s, est. speed input: 3291.06 toks/s, output: 24.28 toks/s]
Saya tidak menemukan informasi tersebut di sistem.

    📚 Sumber (3 chunks):
    • AutoGluon  (https://wiki.efisonlt.com/wiki/AutoGluon)
    • ALELEON Supercomputer  (https://wiki.efisonlt.com/wiki/ALELEON_Supercomputer)
    • Tutorial Menggunakan ALELEON Supercomputer Mk.V  (https://wiki.efisonlt.com/wiki/Tutorial_Menggunakan_ALELEON_Supercomputer_Mk.V)

============================================================
[Q182/197] Berapa bandwidth NVLink antara 2 GPU RTX 3090 di ALELEON?
------------------------------------------------------------
Rendering prompts:   0%|          | 0/1 [00:00<?, ?it/s]Rendering prompts: 100%|██████████| 1/1 [00:00<00:00, 196.39it/s]
Processed prompts:   0%|          | 0/1 [00:00<?, ?it/s, est. speed input: 0.00 toks/s, output: 0.00 toks/s]Processed prompts: 100%|██████████| 1/1 [00:02<00:00,  2.75s/it, est. speed input: 2888.09 toks/s, output: 15.29 toks/s]Processed prompts: 100%|██████████| 1/1 [00:02<00:00,  2.75s/it, est. speed input: 2888.09 toks/s, output: 15.29 toks/s]Processed prompts: 100%|██████████| 1/1 [00:02<00:00,  2.75s/it, est. speed input: 2888.09 toks/s, output: 15.29 toks/s]
2x RTX 3090 dengan NVLink mendukung paralelisasi multi-GPU dan bandwidth NVLink antara 2 GPU tersebut adalah 400 GB/s.

    📚 Sumber (3 chunks):
    • Spesifikasi ALELEON Supercomputer  (https://wiki.efisonlt.com/wiki/Spesifikasi_ALELEON_Supercomputer)
    • ALELEON Desktop  (https://wiki.efisonlt.com/wiki/ALELEON_Desktop)
    • Komputasi dengan Container User via Apptainer  (https://wiki.efisonlt.com/wiki/Komputasi_dengan_Container_User_via_Apptainer)

============================================================
[Q183/197] Apakah user bisa mengubah konfigurasi Slurm sendiri?
------------------------------------------------------------
Rendering prompts:   0%|          | 0/1 [00:00<?, ?it/s]Rendering prompts: 100%|██████████| 1/1 [00:00<00:00, 377.42it/s]
Processed prompts:   0%|          | 0/1 [00:00<?, ?it/s, est. speed input: 0.00 toks/s, output: 0.00 toks/s]Processed prompts: 100%|██████████| 1/1 [00:00<00:00,  1.11it/s, est. speed input: 4141.36 toks/s, output: 14.45 toks/s]Processed prompts: 100%|██████████| 1/1 [00:00<00:00,  1.11it/s, est. speed input: 4141.36 toks/s, output: 14.45 toks/s]Processed prompts: 100%|██████████| 1/1 [00:00<00:00,  1.11it/s, est. speed input: 4141.36 toks/s, output: 14.45 toks/s]
Saya tidak menemukan informasi tersebut di sistem.

    📚 Sumber (3 chunks):
    • AutoGluon  (https://wiki.efisonlt.com/wiki/AutoGluon)
    • Metode Komputasi di ALELEON  (https://wiki.efisonlt.com/wiki/Metode_Komputasi_di_ALELEON)
    • X  (https://wiki.efisonlt.com/wiki/X)

============================================================
[Q184/197] Berapa waktu rata-rata antrian job di ALELEON?
------------------------------------------------------------
Rendering prompts:   0%|          | 0/1 [00:00<?, ?it/s]Rendering prompts: 100%|██████████| 1/1 [00:00<00:00, 450.52it/s]
Processed prompts:   0%|          | 0/1 [00:00<?, ?it/s, est. speed input: 0.00 toks/s, output: 0.00 toks/s]Processed prompts: 100%|██████████| 1/1 [00:00<00:00,  1.21it/s, est. speed input: 4018.18 toks/s, output: 15.69 toks/s]Processed prompts: 100%|██████████| 1/1 [00:00<00:00,  1.21it/s, est. speed input: 4018.18 toks/s, output: 15.69 toks/s]Processed prompts: 100%|██████████| 1/1 [00:00<00:00,  1.21it/s, est. speed input: 4018.18 toks/s, output: 15.69 toks/s]
Saya tidak menemukan informasi tersebut di sistem.

    📚 Sumber (3 chunks):
    • Kode Reason ALELEON Supercomputer  (https://wiki.efisonlt.com/wiki/Kode_Reason_ALELEON_Supercomputer)
    • Pendaftaran dan Biaya ALELEON Supercomputer  (https://wiki.efisonlt.com/wiki/Pendaftaran_dan_Biaya_ALELEON_Supercomputer)
    • Limitasi Fair Usage ALELEON Supercomputer  (https://wiki.efisonlt.com/wiki/Limitasi_Fair_Usage_ALELEON_Supercomputer)

============================================================
[Q185/197] Apakah ALELEON support InfiniBand?
------------------------------------------------------------
Rendering prompts:   0%|          | 0/1 [00:00<?, ?it/s]Rendering prompts: 100%|██████████| 1/1 [00:00<00:00, 427.38it/s]
Processed prompts:   0%|          | 0/1 [00:00<?, ?it/s, est. speed input: 0.00 toks/s, output: 0.00 toks/s]Processed prompts: 100%|██████████| 1/1 [00:00<00:00,  2.57it/s, est. speed input: 8395.93 toks/s, output: 33.44 toks/s]Processed prompts: 100%|██████████| 1/1 [00:00<00:00,  2.57it/s, est. speed input: 8395.93 toks/s, output: 33.44 toks/s]Processed prompts: 100%|██████████| 1/1 [00:00<00:00,  2.57it/s, est. speed input: 8395.93 toks/s, output: 33.44 toks/s]
Saya tidak menemukan informasi tersebut di sistem.

    📚 Sumber (3 chunks):
    • ALELEON Supercomputer  (https://wiki.efisonlt.com/wiki/ALELEON_Supercomputer)
    • Pendaftaran dan Biaya ALELEON Supercomputer  (https://wiki.efisonlt.com/wiki/Pendaftaran_dan_Biaya_ALELEON_Supercomputer)
    • Tutorial Menggunakan ALELEON Supercomputer Mk.V  (https://wiki.efisonlt.com/wiki/Tutorial_Menggunakan_ALELEON_Supercomputer_Mk.V)

============================================================
[Q186/197] Berapa jumlah core fisik per CPU AMD EPYC 7702P?
------------------------------------------------------------
Rendering prompts:   0%|          | 0/1 [00:00<?, ?it/s]Rendering prompts: 100%|██████████| 1/1 [00:00<00:00, 170.88it/s]
Processed prompts:   0%|          | 0/1 [00:00<?, ?it/s, est. speed input: 0.00 toks/s, output: 0.00 toks/s]Processed prompts: 100%|██████████| 1/1 [00:02<00:00,  2.34s/it, est. speed input: 3781.18 toks/s, output: 7.69 toks/s]Processed prompts: 100%|██████████| 1/1 [00:02<00:00,  2.34s/it, est. speed input: 3781.18 toks/s, output: 7.69 toks/s]Processed prompts: 100%|██████████| 1/1 [00:02<00:00,  2.34s/it, est. speed input: 3781.18 toks/s, output: 7.69 toks/s]
1 core fisik per CPU AMD EPYC 7702P.

    📚 Sumber (3 chunks):
    • Spesifikasi ALELEON Supercomputer  (https://wiki.efisonlt.com/wiki/Spesifikasi_ALELEON_Supercomputer)
    • CP2K  (https://wiki.efisonlt.com/wiki/CP2K)
    • MPI ALELEON Supercomputer  (https://wiki.efisonlt.com/wiki/MPI_ALELEON_Supercomputer)

============================================================
[Q187/197] Apakah ALELEON menyediakan layanan pelatihan HPC untuk pemula?
------------------------------------------------------------
Rendering prompts:   0%|          | 0/1 [00:00<?, ?it/s]Rendering prompts: 100%|██████████| 1/1 [00:00<00:00, 462.85it/s]
Processed prompts:   0%|          | 0/1 [00:00<?, ?it/s, est. speed input: 0.00 toks/s, output: 0.00 toks/s]Processed prompts: 100%|██████████| 1/1 [00:02<00:00,  2.05s/it, est. speed input: 1444.12 toks/s, output: 34.11 toks/s]Processed prompts: 100%|██████████| 1/1 [00:02<00:00,  2.05s/it, est. speed input: 1444.12 toks/s, output: 34.11 toks/s]Processed prompts: 100%|██████████| 1/1 [00:02<00:00,  2.05s/it, est. speed input: 1444.12 toks/s, output: 34.11 toks/s]
Ya, ALELEON menyediakan layanan pelatihan HPC untuk pemula. Pengguna dapat mengakses tutorial lengkap dan mendampingan penggunaan ALELEON Supercomputer baik melalui wiki ini, email support, atau daring (Zoom, Google Meet) dengan waktu yang ditentukan bersama.

    📚 Sumber (3 chunks):
    • ALELEON Supercomputer  (https://wiki.efisonlt.com/wiki/ALELEON_Supercomputer)
    • Pendaftaran dan Biaya ALELEON Supercomputer  (https://wiki.efisonlt.com/wiki/Pendaftaran_dan_Biaya_ALELEON_Supercomputer)
    • Login Pertama ALELEON Supercomputer  (https://wiki.efisonlt.com/wiki/Login_Pertama_ALELEON_Supercomputer)

============================================================
[Q188/197] Berapa uptime SLA yang dijamin oleh EFISON?
------------------------------------------------------------
Rendering prompts:   0%|          | 0/1 [00:00<?, ?it/s]Rendering prompts: 100%|██████████| 1/1 [00:00<00:00, 528.58it/s]
Processed prompts:   0%|          | 0/1 [00:00<?, ?it/s, est. speed input: 0.00 toks/s, output: 0.00 toks/s]Processed prompts: 100%|██████████| 1/1 [00:00<00:00,  1.62it/s, est. speed input: 3569.90 toks/s, output: 21.04 toks/s]Processed prompts: 100%|██████████| 1/1 [00:00<00:00,  1.62it/s, est. speed input: 3569.90 toks/s, output: 21.04 toks/s]Processed prompts: 100%|██████████| 1/1 [00:00<00:00,  1.62it/s, est. speed input: 3569.90 toks/s, output: 21.04 toks/s]
Saya tidak menemukan informasi tersebut di sistem.

    📚 Sumber (3 chunks):
    • Upload - Download File ALELEON  (https://wiki.efisonlt.com/wiki/Upload_-_Download_File_ALELEON)
    • Tutorial Menggunakan ALELEON Supercomputer Mk.V  (https://wiki.efisonlt.com/wiki/Tutorial_Menggunakan_ALELEON_Supercomputer_Mk.V)
    • ALELEON Supercomputer  (https://wiki.efisonlt.com/wiki/ALELEON_Supercomputer)

============================================================
[Q189/197] Apakah ALELEON mendukung remote desktop via RDP?
------------------------------------------------------------
Rendering prompts:   0%|          | 0/1 [00:00<?, ?it/s]Rendering prompts: 100%|██████████| 1/1 [00:00<00:00, 232.49it/s]
Processed prompts:   0%|          | 0/1 [00:00<?, ?it/s, est. speed input: 0.00 toks/s, output: 0.00 toks/s]Processed prompts: 100%|██████████| 1/1 [00:01<00:00,  1.63s/it, est. speed input: 4030.30 toks/s, output: 7.95 toks/s]Processed prompts: 100%|██████████| 1/1 [00:01<00:00,  1.63s/it, est. speed input: 4030.30 toks/s, output: 7.95 toks/s]Processed prompts: 100%|██████████| 1/1 [00:01<00:00,  1.63s/it, est. speed input: 4030.30 toks/s, output: 7.95 toks/s]
Saya tidak menemukan informasi tersebut di sistem.

    📚 Sumber (3 chunks):
    • ALELEON Desktop  (https://wiki.efisonlt.com/wiki/ALELEON_Desktop)
    • ALELEON Supercomputer  (https://wiki.efisonlt.com/wiki/ALELEON_Supercomputer)
    • SW-GXN  (https://wiki.efisonlt.com/wiki/SW-GXN)

============================================================
[Q190/197] Berapa jumlah mahasiswa yang pernah menggunakan EUREKA?
------------------------------------------------------------
Rendering prompts:   0%|          | 0/1 [00:00<?, ?it/s]Rendering prompts: 100%|██████████| 1/1 [00:00<00:00, 800.44it/s]
Processed prompts:   0%|          | 0/1 [00:00<?, ?it/s, est. speed input: 0.00 toks/s, output: 0.00 toks/s]Processed prompts: 100%|██████████| 1/1 [00:00<00:00,  1.90it/s, est. speed input: 2986.68 toks/s, output: 24.76 toks/s]Processed prompts: 100%|██████████| 1/1 [00:00<00:00,  1.90it/s, est. speed input: 2986.68 toks/s, output: 24.76 toks/s]Processed prompts: 100%|██████████| 1/1 [00:00<00:00,  1.90it/s, est. speed input: 2986.68 toks/s, output: 24.76 toks/s]
Saya tidak menemukan informasi tersebut di sistem.

    📚 Sumber (3 chunks):
    • EUREKA!  (https://wiki.efisonlt.com/wiki/EUREKA!)
    • EUREKA! Periode 2  (https://wiki.efisonlt.com/wiki/EUREKA!_Periode_2)
    • ALELEON Supercomputer  (https://wiki.efisonlt.com/wiki/ALELEON_Supercomputer)

============================================================
[Q191/197] Apakah pengguna bisa mengakses BIOS atau firmware node?
------------------------------------------------------------
Rendering prompts:   0%|          | 0/1 [00:00<?, ?it/s]Rendering prompts: 100%|██████████| 1/1 [00:00<00:00, 1405.13it/s]
Processed prompts:   0%|          | 0/1 [00:00<?, ?it/s, est. speed input: 0.00 toks/s, output: 0.00 toks/s]Processed prompts: 100%|██████████| 1/1 [00:00<00:00,  2.50it/s, est. speed input: 1889.98 toks/s, output: 32.46 toks/s]Processed prompts: 100%|██████████| 1/1 [00:00<00:00,  2.50it/s, est. speed input: 1889.98 toks/s, output: 32.46 toks/s]Processed prompts: 100%|██████████| 1/1 [00:00<00:00,  2.50it/s, est. speed input: 1889.98 toks/s, output: 32.46 toks/s]
Saya tidak menemukan informasi tersebut di sistem.

    📚 Sumber (3 chunks):
    • Software Komputasi dari User  (https://wiki.efisonlt.com/wiki/Software_Komputasi_dari_User)
    • Komputasi Python dengan Python venv User  (https://wiki.efisonlt.com/wiki/Komputasi_Python_dengan_Python_venv_User)
    • Komputasi Python  (https://wiki.efisonlt.com/wiki/Komputasi_Python)

============================================================
[Q192/197] Apakah ALELEON menyediakan API untuk submit job secara programmatic?
------------------------------------------------------------
Rendering prompts:   0%|          | 0/1 [00:00<?, ?it/s]Rendering prompts: 100%|██████████| 1/1 [00:00<00:00, 420.36it/s]
Processed prompts:   0%|          | 0/1 [00:00<?, ?it/s, est. speed input: 0.00 toks/s, output: 0.00 toks/s]Processed prompts: 100%|██████████| 1/1 [00:00<00:00,  1.29it/s, est. speed input: 4261.41 toks/s, output: 16.76 toks/s]Processed prompts: 100%|██████████| 1/1 [00:00<00:00,  1.29it/s, est. speed input: 4261.41 toks/s, output: 16.76 toks/s]Processed prompts: 100%|██████████| 1/1 [00:00<00:00,  1.29it/s, est. speed input: 4261.41 toks/s, output: 16.76 toks/s]
Saya tidak menemukan informasi tersebut di sistem.

    📚 Sumber (3 chunks):
    • Kode Reason ALELEON Supercomputer  (https://wiki.efisonlt.com/wiki/Kode_Reason_ALELEON_Supercomputer)
    • SW-AMK  (https://wiki.efisonlt.com/wiki/SW-AMK)
    • ALELEON Supercomputer  (https://wiki.efisonlt.com/wiki/ALELEON_Supercomputer)

============================================================
[Q193/197] Berapa jumlah penelitian yang sedang berjalan di ALELEON saat ini?
------------------------------------------------------------
Rendering prompts:   0%|          | 0/1 [00:00<?, ?it/s]Rendering prompts: 100%|██████████| 1/1 [00:00<00:00, 493.33it/s]
Processed prompts:   0%|          | 0/1 [00:00<?, ?it/s, est. speed input: 0.00 toks/s, output: 0.00 toks/s]Processed prompts: 100%|██████████| 1/1 [00:00<00:00,  1.66it/s, est. speed input: 3718.37 toks/s, output: 21.64 toks/s]Processed prompts: 100%|██████████| 1/1 [00:00<00:00,  1.66it/s, est. speed input: 3718.37 toks/s, output: 21.64 toks/s]Processed prompts: 100%|██████████| 1/1 [00:00<00:00,  1.66it/s, est. speed input: 3718.37 toks/s, output: 21.64 toks/s]
Saya tidak menemukan informasi tersebut di sistem.

    📚 Sumber (3 chunks):
    • ALELEON Supercomputer  (https://wiki.efisonlt.com/wiki/ALELEON_Supercomputer)
    • EUREKA!  (https://wiki.efisonlt.com/wiki/EUREKA!)
    • Publikasi Pengguna ALELEON Supercomputer  (https://wiki.efisonlt.com/wiki/Publikasi_Pengguna_ALELEON_Supercomputer)

============================================================
[Q194/197] Apakah ALELEON mendukung Singularity selain Apptainer?
------------------------------------------------------------
Rendering prompts:   0%|          | 0/1 [00:00<?, ?it/s]Rendering prompts: 100%|██████████| 1/1 [00:00<00:00, 242.22it/s]
Processed prompts:   0%|          | 0/1 [00:00<?, ?it/s, est. speed input: 0.00 toks/s, output: 0.00 toks/s]Processed prompts: 100%|██████████| 1/1 [00:00<00:00,  2.31it/s, est. speed input: 14745.30 toks/s, output: 30.05 toks/s]Processed prompts: 100%|██████████| 1/1 [00:00<00:00,  2.31it/s, est. speed input: 14745.30 toks/s, output: 30.05 toks/s]Processed prompts: 100%|██████████| 1/1 [00:00<00:00,  2.31it/s, est. speed input: 14745.30 toks/s, output: 30.05 toks/s]
Saya tidak menemukan informasi tersebut di sistem.

    📚 Sumber (3 chunks):
    • ALELEON Supercomputer  (https://wiki.efisonlt.com/wiki/ALELEON_Supercomputer)
    • Komputasi dengan Container User via Apptainer  (https://wiki.efisonlt.com/wiki/Komputasi_dengan_Container_User_via_Apptainer)
    • AutoGluon  (https://wiki.efisonlt.com/wiki/AutoGluon)

============================================================
[Q195/197] Berapa total daya listrik yang dikonsumsi ALELEON Supercomputer?
------------------------------------------------------------
Rendering prompts:   0%|          | 0/1 [00:00<?, ?it/s]Rendering prompts: 100%|██████████| 1/1 [00:00<00:00, 423.32it/s]
Processed prompts:   0%|          | 0/1 [00:00<?, ?it/s, est. speed input: 0.00 toks/s, output: 0.00 toks/s]Processed prompts: 100%|██████████| 1/1 [00:00<00:00,  1.48it/s, est. speed input: 5191.88 toks/s, output: 19.20 toks/s]Processed prompts: 100%|██████████| 1/1 [00:00<00:00,  1.48it/s, est. speed input: 5191.88 toks/s, output: 19.20 toks/s]Processed prompts: 100%|██████████| 1/1 [00:00<00:00,  1.48it/s, est. speed input: 5191.88 toks/s, output: 19.20 toks/s]
Saya tidak menemukan informasi tersebut di sistem.

    📚 Sumber (3 chunks):
    • ALELEON Supercomputer  (https://wiki.efisonlt.com/wiki/ALELEON_Supercomputer)
    • Spesifikasi ALELEON Supercomputer  (https://wiki.efisonlt.com/wiki/Spesifikasi_ALELEON_Supercomputer)
    • Pendaftaran dan Biaya ALELEON Supercomputer  (https://wiki.efisonlt.com/wiki/Pendaftaran_dan_Biaya_ALELEON_Supercomputer)

============================================================
[Q196/197] Apakah ada diskon untuk pembelian core hour dalam jumlah besar?
------------------------------------------------------------
Rendering prompts:   0%|          | 0/1 [00:00<?, ?it/s]Rendering prompts: 100%|██████████| 1/1 [00:00<00:00, 479.13it/s]
Processed prompts:   0%|          | 0/1 [00:00<?, ?it/s, est. speed input: 0.00 toks/s, output: 0.00 toks/s]Processed prompts: 100%|██████████| 1/1 [00:00<00:00,  1.21it/s, est. speed input: 3994.95 toks/s, output: 15.79 toks/s]Processed prompts: 100%|██████████| 1/1 [00:00<00:00,  1.21it/s, est. speed input: 3994.95 toks/s, output: 15.79 toks/s]Processed prompts: 100%|██████████| 1/1 [00:00<00:00,  1.21it/s, est. speed input: 3994.95 toks/s, output: 15.79 toks/s]
Saya tidak menemukan informasi tersebut di sistem.

    📚 Sumber (3 chunks):
    • Core Hour  (https://wiki.efisonlt.com/wiki/Core_Hour)
    • Pendaftaran dan Biaya ALELEON Supercomputer  (https://wiki.efisonlt.com/wiki/Pendaftaran_dan_Biaya_ALELEON_Supercomputer)
    • Software Komputasi dari User  (https://wiki.efisonlt.com/wiki/Software_Komputasi_dari_User)

============================================================
[Q197/197] Apakah ALELEON berencana upgrade ke GPU NVIDIA H100?
------------------------------------------------------------
Rendering prompts:   0%|          | 0/1 [00:00<?, ?it/s]Rendering prompts: 100%|██████████| 1/1 [00:00<00:00, 211.64it/s]
Processed prompts:   0%|          | 0/1 [00:00<?, ?it/s, est. speed input: 0.00 toks/s, output: 0.00 toks/s]Processed prompts: 100%|██████████| 1/1 [00:01<00:00,  1.67s/it, est. speed input: 4425.31 toks/s, output: 7.81 toks/s]Processed prompts: 100%|██████████| 1/1 [00:01<00:00,  1.67s/it, est. speed input: 4425.31 toks/s, output: 7.81 toks/s]Processed prompts: 100%|██████████| 1/1 [00:01<00:00,  1.67s/it, est. speed input: 4425.31 toks/s, output: 7.81 toks/s]
Saya tidak menemukan informasi tersebut di sistem.

    📚 Sumber (3 chunks):
    • Spesifikasi ALELEON Supercomputer  (https://wiki.efisonlt.com/wiki/Spesifikasi_ALELEON_Supercomputer)
    • ALELEON Supercomputer  (https://wiki.efisonlt.com/wiki/ALELEON_Supercomputer)
    • Komputasi dengan Container User via Apptainer  (https://wiki.efisonlt.com/wiki/Komputasi_dengan_Container_User_via_Apptainer)

============================================================
Selesai — 197 pertanyaan dijawab.
[rank0]:[W305 10:18:23.659795859 ProcessGroupNCCL.cpp:1524] Warning: WARNING: destroy_process_group() was not called before program exit, which can leak resources. For more info, please see https://pytorch.org/docs/stable/distributed.html#shutdown (function operator())
