Memulai proses RAG dengan mesin vLLM...

[1] Membaca & splitting halaman wiki berdasarkan struktur HTML...
    Mengambil sitemap...
    → 63 URL ditemukan
    [1/63] ALELEON Supercomputer: 771 chars
    [2/63] Submit Script ALELEON Supercomputer: 7660 chars
    [3/63] Core Hour: 3615 chars
    [4/63] Katalog Software ALELEON Supercomputer: 6932 chars
    [5/63] Pendaftaran dan Biaya ALELEON Supercomputer: 5348 chars
    [6/63] R: 12150 chars
    [7/63] Spesifikasi ALELEON Supercomputer: 3325 chars
    [8/63] GROMACS: 14179 chars
    [9/63] NWChem: 5806 chars
    [10/63] Quantum ESPRESSO: 8717 chars
    [11/63] GAMESS: 5762 chars
    [12/63] NAMD: 7430 chars
    [13/63] ORCA: 8965 chars
    [14/63] Koneksi VPN ALELEON Supercomputer: 3964 chars
    [15/63] COMCOT: 5626 chars
    [16/63] PHASE/0: 8050 chars
    [17/63] EasyBuild: 2106 chars
    [18/63] MPI ALELEON Supercomputer: 11867 chars
    [19/63] EUREKA!: 413 chars
    [20/63] EUREKA! Periode 2: 2044 chars
    [21/63] Daftar Software Komputasi dan Tutorial Penggunaan: 1788 chars
    [22/63] CP2K: 10557 chars
    [23/63] SPECFEM3D: 30 chars
    [24/63] SW-GXN: 16317 chars
    [25/63] LAMMPS: 10353 chars
    [26/63] DFTB%2B: 7948 chars
    [27/63] OpenMX: 9413 chars
    [28/63] Publikasi Pengguna ALELEON Supercomputer: 3789 chars
    [29/63] Limitasi Fair Usage ALELEON Supercomputer: 2596 chars
    [30/63] Kode Reason ALELEON Supercomputer: 1270 chars
    [31/63] Komputasi Python dengan Conda Environment User: 17551 chars
    [32/63] Komputasi Python: 486 chars
    [33/63] Komputasi dengan Container User via Apptainer: 17524 chars
    [34/63] Trial Testing: 18327 chars
    [35/63] ALELEON Desktop: 2471 chars
    [36/63] Upload - Download File ALELEON: 2000 chars
    [37/63] TRIAL A6: 21518 chars
    [38/63] Troubleshooting dan Support: 7910 chars
    [39/63] Tutorial Menggunakan ALELEON Supercomputer Mk.V: 3056 chars
    [40/63] Login Pertama ALELEON Supercomputer: 1863 chars
    [41/63] EFIRO Account Manager: 2900 chars
    [42/63] Pengantar SSH Key: 2598 chars
    [43/63] Sausage dan Aturan Metrik Penggunaan ALELEON: 6228 chars
    [44/63] Daftar Environment Python ALELEON: 488 chars
    [45/63] Pengenalan Menggunakan ALELEON Supercomputer: 3049 chars
    [46/63] Metode Komputasi di ALELEON: 3683 chars
    [47/63] Migrasi Akun dan Data Mk.III ke Mk.V: 5921 chars
    [48/63] SW-AMK: 6972 chars
    [49/63] Login SSH dan SFTP ALELEON Supercomputer: 4694 chars
    [50/63] SIESTA: 7939 chars
    [51/63] SW-AJFT: 15972 chars
    [52/63] X: 6033 chars
    [53/63] Komputasi Python dengan Python venv User: 203 chars
    [54/63] Software Komputasi Instalasi User: 1340 chars
    [55/63] Phono3py dan Phonopy: 12622 chars
    [56/63] Registrasi SSH Key ALELEON Supercomputer: 5164 chars
    [57/63] BoltzTraP2: 13253 chars
    [58/63] AI Compilation: 203 chars
    [59/63] ACPYPE: 12747 chars
    [60/63] GMX-MMPBSA: 12476 chars
    [61/63] AutoGluon: 488 chars
    [62/63] XUIN Temporary: 5788 chars
    [63/63] Software Komputasi dari User: 203 chars

    → Total chunks: 63

    [Chunk 0] (803 chars):
    [Sumber: ALELEON Supercomputer]
Selamat datang di wiki ALELEON Supercomputer! ALELEON Supercomputer adalah layanan super...

    [Chunk 1] (7706 chars):
    [Sumber: Submit Script ALELEON Supercomputer]
Halaman ini menjelaskan pemahaman
Submit Script
yang merupakan 'formulir' ...

    [Chunk 2] (3635 chars):
    [Sumber: Core Hour]
Core Hour adalah metrik yang digunakan oleh ALELEON Supercomputer untuk menghitung biaya penggunaan ...

    [Chunk 3] (6981 chars):
    [Sumber: Katalog Software ALELEON Supercomputer]
Halaman ini memuat info daftar software terinstal di ALELEON Supercompu...

    [Chunk 4] (5402 chars):
    [Sumber: Pendaftaran dan Biaya ALELEON Supercomputer]
Halaman ini memuat informasi pendaftaran akun untuk menggunakan AL...

    [Chunk 5] (12162 chars):
    [Sumber: R]
R adalah bahasa interpreter yang didesain untuk mengerjakan komputasi statistika. Pada perkembangannya, baha...

    [Chunk 6] (3369 chars):
    [Sumber: Spesifikasi ALELEON Supercomputer]
ALELEON Supercomputer saat ini menggunakan
ALELEON Mk.V
- superkomputer
cust...

    [Chunk 7] (14197 chars):
    [Sumber: GROMACS]
[
GROMACS
]
adalah package berkecepatan tinggi untuk komputasi dinamika molekular baik untuk biokimia ...

    [Chunk 8] (5823 chars):
    [Sumber: NWChem]
NWChem
adalah software komputasi kimia untuk biomolekul, kimia kuantum, kimia klasik,
Gaussian, nanostr...

    [Chunk 9] (8744 chars):
    [Sumber: Quantum ESPRESSO]
[
Quantum ESPRESSO
]
adalah framework suite untuk kalkulasi
electronic-structure
dan modeling...

    [Chunk 10] (5779 chars):
    [Sumber: GAMESS]
GAMESS
(General Atomic and Molecular Electronic Structure System) adalah package
ab-inito
kimia kuantum...

    [Chunk 11] (7445 chars):
    [Sumber: NAMD]
NAMD
adalah framework dinamika molekular yang digunakan untuk komputasi biomolekuler skala besar di HPC. ...

    [Chunk 12] (8980 chars):
    [Sumber: ORCA]
[
ORCA
]
adalah package ab-inito kimia kuantum yang menyediakan semua metode
electronic structure
seperti...

    [Chunk 13] (4008 chars):
    [Sumber: Koneksi VPN ALELEON Supercomputer]
HOL'UP! Halaman ini bersifat LEGACY untuk ALELEON Mk.III (saat ini sudah Mk....

    [Chunk 14] (5643 chars):
    [Sumber: COMCOT]
COMCOT (Cornell Multi-grid Coupled Tsunami Grid)
adalah software pemodelan tsunami yang menggunakan met...

    [Chunk 15] (8068 chars):
    [Sumber: PHASE/0]
[
PHASE/0
]
adalah program untuk menghitung struktur elektronik yang berbasis DFT (density functional ...

    [Chunk 16] (2126 chars):
    [Sumber: EasyBuild]
Daftar isi
1
Deskripsi
2
Mengatur Direktori Instalasi Software
3
Melihat Daftar Software yang Tersed...

    [Chunk 17] (11903 chars):
    [Sumber: MPI ALELEON Supercomputer]
Halaman ini menjelaskan teknis menjalankan program
MPI
di ALELEON Supercomputer seca...

    [Chunk 18] (431 chars):
    [Sumber: EUREKA!]
EUREKA! adalah
program sponsorship layanan gratis penggunaan ALELEON Superkomputer
bagi Warga Negara I...

    [Chunk 19] (2072 chars):
    [Sumber: EUREKA! Periode 2]
EUREKA! Periode 2 adalah instalasi kedua dari
EUREKA!
yaitu program sponsorship layanan grat...

    [Chunk 20] (1848 chars):
    [Sumber: Daftar Software Komputasi dan Tutorial Penggunaan]
Halaman ini bagian dari:
[
Tutorial Menggunakan ALELEON Mk.V...

    [Chunk 21] (10572 chars):
    [Sumber: CP2K]
[
CP2K
]
adalah package untuk
quantum chemistry
dan
solid state physics
yang dapat melakukan simulasi liq...

    [Chunk 22] (50 chars):
    [Sumber: SPECFEM3D]
SPECFEM3D adalah software .......

    [Chunk 23] (16334 chars):
    [Sumber: SW-GXN]
Ini adalah panduan spesifik bagi user group gxn untuk menggunakan ALELEON Supercomputer.
- Daftar isi -...

    [Chunk 24] (10370 chars):
    [Sumber: LAMMPS]
[
LAMMPS
]
(Large-scale Atomic/Molecular Massively Parallel Simulator)
adalah framework molekular dinam...

    [Chunk 25] (7966 chars):
    [Sumber: DFTB%2B]
DFTB+
adalah software package yang versatil untuk simulasi
mechanical quantum
. DFTB+ merupakan softwa...

    [Chunk 26] (9430 chars):
    [Sumber: OpenMX]
[
OpenMX
]
adalah software package untuk simulasi material skala nano berdasarkan DFT (Density Function...

    [Chunk 27] (3840 chars):
    [Sumber: Publikasi Pengguna ALELEON Supercomputer]
Berikut adalah daftar publikasi dari pengguna yang menyertakan kredit...

    [Chunk 28] (2648 chars):
    [Sumber: Limitasi Fair Usage ALELEON Supercomputer]
Per tanggal 3 Februari 2023, ALELEON Supercomputer mengimplementasik...

    [Chunk 29] (1314 chars):
    [Sumber: Kode Reason ALELEON Supercomputer]
Pada pembacaan status antrian job squeue, tab NODELIST(REASON) dapat memberi...

    [Chunk 30] (17608 chars):
    [Sumber: Komputasi Python dengan Conda Environment User]
Halaman ini menjelaskan langkah menjalankan komputasi Python di...

    [Chunk 31] (513 chars):
    [Sumber: Komputasi Python]
Maaf, halaman ini baru saja dihapus (dalam rentang waktu 24 jam).
Log penghapusan, perlindung...

    [Chunk 32] (17580 chars):
    [Sumber: Komputasi dengan Container User via Apptainer]
Halaman ini menjelaskan langkah menjalankan software komputasi u...

    [Chunk 33] (18351 chars):
    [Sumber: Trial Testing]
Halaman ini menjabarkan tutorial untuk pengujian software komputasi dan hardware di ALELEON Supe...

    [Chunk 34] (2497 chars):
    [Sumber: ALELEON Desktop]
ALELEON Desktop adalah sesi interaktif virtual desktop berbasiskan Desktop Environment (DE) Li...

    [Chunk 35] (2041 chars):
    [Sumber: Upload - Download File ALELEON]
Halaman ini menjelaskan opsi dan langkah transfer data (
upload - download file...

    [Chunk 36] (21537 chars):
    [Sumber: TRIAL A6]
Ini adalah panduan
all-in-one
untuk masa uji coba user dengan
kode [A]/6
.
Daftar isi
1
Login ALELEON...

    [Chunk 37] (7948 chars):
    [Sumber: Troubleshooting dan Support]
Halaman ini membahas langkah troubleshooting dan support masalah user di ALELEON S...

    [Chunk 38] (3114 chars):
    [Sumber: Tutorial Menggunakan ALELEON Supercomputer Mk.V]
ALELEON Mk.V
adalah kelanjutan ALELEON Supercomputer Mk.III de...

    [Chunk 39] (1909 chars):
    [Sumber: Login Pertama ALELEON Supercomputer]
Halaman ini bagian dari:
[
Tutorial Menggunakan ALELEON Mk.V
]
Halaman ini...

    [Chunk 40] (2932 chars):
    [Sumber: EFIRO Account Manager]
EFIRO Account Manager
<
EAM
>
adalah portal web untuk manajemen info akun dan password u...

    [Chunk 41] (2626 chars):
    [Sumber: Pengantar SSH Key]
Halaman ini adalah
pengantar
bagi user yang pertama kali mengenal dan membuat SSH Key.
Halam...

    [Chunk 42] (6283 chars):
    [Sumber: Sausage dan Aturan Metrik Penggunaan ALELEON]
Halaman ini bagian dari:
[
Daftar Software Komputasi dan Tutorial...

    [Chunk 43] (532 chars):
    [Sumber: Daftar Environment Python ALELEON]
Maaf, halaman ini baru saja dihapus (dalam rentang waktu 24 jam).
Log pengha...

    [Chunk 44] (3104 chars):
    [Sumber: Pengenalan Menggunakan ALELEON Supercomputer]
Halaman ini merangkum pengenalan budaya menggunakan ALELEON Super...

    [Chunk 45] (3721 chars):
    [Sumber: Metode Komputasi di ALELEON]
Halaman ini menjelaskan
konsep menjalankan komputasi
di ALELEON yaitu manajemen Sl...

    [Chunk 46] (5968 chars):
    [Sumber: Migrasi Akun dan Data Mk.III ke Mk.V]
Halaman ini ditujukan bagi
user ALELEON Mk.III (dan Mk.II)
untuk pengumum...

    [Chunk 47] (6989 chars):
    [Sumber: SW-AMK]
Ini adalah panduan spesifik bagi grup user
AMK
untuk menggunakan ALELEON Supercomputer.
- Daftar isi -
...

    [Chunk 48] (4745 chars):
    [Sumber: Login SSH dan SFTP ALELEON Supercomputer]
Halaman ini bagian dari:
[
Tutorial ALELEON Supercomputer Mk.V
]
Hala...

    [Chunk 49] (7956 chars):
    [Sumber: SIESTA]
[
SIESTA
]
, dikembangkan oleh MaX Centre of Excellence, adalah metode dan framework untuk kalkulasi
el...

    [Chunk 50] (15990 chars):
    [Sumber: SW-AJFT]
Ini adalah panduan spesifik bagi user group ajft untuk menggunakan ALELEON Supercomputer.
- Daftar Isi...

    [Chunk 51] (6045 chars):
    [Sumber: X]
TRIAL
Pilihan Menjalankan Komputasi
Berikut opsi yang dapat dipilih sesuai kebutuhan dan preferensi user:
Pe...

    [Chunk 52] (254 chars):
    [Sumber: Komputasi Python dengan Python venv User]
Saat ini tidak ada teks di halaman ini.
Anda dapat
melakukan pencaria...

    [Chunk 53] (1384 chars):
    [Sumber: Software Komputasi Instalasi User]
Halaman ini bagian dari:
[
Daftar Software Komputasi dan Tutorial
]
Halaman ...

    [Chunk 54] (12653 chars):
    [Sumber: Phono3py dan Phonopy]
[
Phono3py
]
adalah package Python untuk kalkulasi
lattice thermal conductivity
suatu mat...

    [Chunk 55] (5215 chars):
    [Sumber: Registrasi SSH Key ALELEON Supercomputer]
Halaman ini bagian dari:
[
Tutorial ALELEON Supercomputer Mk.V
]
[
Lo...

    [Chunk 56] (13274 chars):
    [Sumber: BoltzTraP2]
[
BoltzTraP2
]
adalah implementasi modern berbasis package Python untuk
smoothed Fourier interpolat...

    [Chunk 57] (228 chars):
    [Sumber: AI Compilation]
Saat ini tidak ada teks di halaman ini.
Anda dapat
melakukan pencarian untuk judul halaman ini
...

    [Chunk 58] (12764 chars):
    [Sumber: ACPYPE]
[
ACYPE
]
(AnteChamber PYthon Parser InterfacE) adalah package Python berbasis software Antechamber unt...

    [Chunk 59] (12497 chars):
    [Sumber: GMX-MMPBSA]
[
gmx_MMPBSA
]
adalah package Python berbasis MMPBSA.py dari AMBER untuk kalkulasi end-state free e...

    [Chunk 60] (508 chars):
    [Sumber: AutoGluon]
Maaf, halaman ini baru saja dihapus (dalam rentang waktu 24 jam).
Log penghapusan, perlindungan, dan...

    [Chunk 61] (5813 chars):
    [Sumber: XUIN Temporary]
Update 12 Januari 2026
1. Daftar Instalasi Package AI
Instalasi global per tanggal 12 Januari 2...

    [Chunk 62] (242 chars):
    [Sumber: Software Komputasi dari User]
Saat ini tidak ada teks di halaman ini.
Anda dapat
melakukan pencarian untuk judu...
[3] Load model embedding lokal...
[4] Menyimpan vektor ke database Chroma...

[5] Memuat model Qwen ke GPU menggunakan vLLM...
    (Ini akan memakan waktu untuk alokasi KV Cache di VRAM)
INFO 03-05 05:49:29 [utils.py:229] non-default args: {'trust_remote_code': True, 'dtype': 'float16', 'max_model_len': 32768, 'gpu_memory_utilization': 0.8, 'disable_log_stats': True, 'enforce_eager': True, 'model': 'Qwen/Qwen3.5-35B-A3B-GPTQ-Int4'}
INFO 03-05 05:49:31 [model.py:532] Resolved architecture: Qwen3_5MoeForConditionalGeneration
WARNING 03-05 05:49:31 [model.py:1896] Casting torch.bfloat16 to torch.float16.
INFO 03-05 05:49:31 [model.py:1556] Using max model len 32768
WARNING 03-05 05:49:32 [gpt_oss_triton_kernels_moe.py:55] Using legacy triton_kernels on ROCm
INFO 03-05 05:49:32 [scheduler.py:231] Chunked prefill is enabled with max_num_batched_tokens=8192.
INFO 03-05 05:49:32 [config.py:500] Setting attention block size to 1056 tokens to ensure that attention page size is >= mamba page size.
INFO 03-05 05:49:32 [config.py:531] Padding mamba page size by 0.76% to ensure that mamba page size and attention page size are exactly equal.
WARNING 03-05 05:49:32 [gptq.py:99] Currently, the 4-bit gptq_gemm kernel for GPTQ is buggy. Please switch to gptq_marlin.
INFO 03-05 05:49:39 [vllm.py:697] Asynchronous scheduling is enabled.
WARNING 03-05 05:49:39 [vllm.py:731] Enforce eager set, disabling torch.compile and CUDAGraphs. This is equivalent to setting -cc.mode=none -cc.cudagraph_mode=none
WARNING 03-05 05:49:39 [vllm.py:742] Inductor compilation was disabled by user settings, optimizations settings that are only active during inductor compilation will be ignored.
INFO 03-05 05:49:39 [vllm.py:855] Cudagraph is disabled under eager mode
WARNING 03-05 05:49:52 [system_utils.py:140] We must use the `spawn` multiprocessing start method. Overriding VLLM_WORKER_MULTIPROC_METHOD to 'spawn'. See https://docs.vllm.ai/en/latest/usage/troubleshooting.html#python-multiprocessing for more information. Reasons: CUDA is initialized
(EngineCore_DP0 pid=3915) INFO 03-05 05:49:55 [core.py:98] Initializing a V1 LLM engine (v0.16.0rc2.dev409+g596ed1f02) with config: model='Qwen/Qwen3.5-35B-A3B-GPTQ-Int4', speculative_config=None, tokenizer='Qwen/Qwen3.5-35B-A3B-GPTQ-Int4', skip_tokenizer_init=False, tokenizer_mode=auto, revision=None, tokenizer_revision=None, trust_remote_code=True, dtype=torch.float16, max_seq_len=32768, download_dir=None, load_format=auto, tensor_parallel_size=1, pipeline_parallel_size=1, data_parallel_size=1, disable_custom_all_reduce=True, quantization=gptq, enforce_eager=True, enable_return_routed_experts=False, kv_cache_dtype=auto, device_config=cuda, structured_outputs_config=StructuredOutputsConfig(backend='auto', disable_fallback=False, disable_any_whitespace=False, disable_additional_properties=False, reasoning_parser='', reasoning_parser_plugin='', enable_in_reasoning=False), observability_config=ObservabilityConfig(show_hidden_metrics_for_version=None, otlp_traces_endpoint=None, collect_detailed_traces=None, kv_cache_metrics=False, kv_cache_metrics_sample=0.01, cudagraph_metrics=False, enable_layerwise_nvtx_tracing=False, enable_mfu_metrics=False, enable_mm_processor_stats=False, enable_logging_iteration_details=False), seed=0, served_model_name=Qwen/Qwen3.5-35B-A3B-GPTQ-Int4, enable_prefix_caching=False, enable_chunked_prefill=True, pooler_config=None, compilation_config={'level': None, 'mode': <CompilationMode.NONE: 0>, 'debug_dump_path': None, 'cache_dir': '', 'compile_cache_save_format': 'binary', 'backend': 'inductor', 'custom_ops': ['all', '+sparse_attn_indexer'], 'splitting_ops': [], 'compile_mm_encoder': False, 'compile_sizes': [], 'compile_ranges_split_points': [8192], 'inductor_compile_config': {'enable_auto_functionalized_v2': False, 'combo_kernels': True, 'benchmark_combo_kernel': True}, 'inductor_passes': {}, 'cudagraph_mode': <CUDAGraphMode.NONE: 0>, 'cudagraph_num_of_warmups': 0, 'cudagraph_capture_sizes': [], 'cudagraph_copy_inputs': False, 'cudagraph_specialize_lora': True, 'use_inductor_graph_partition': False, 'pass_config': {'fuse_norm_quant': True, 'fuse_act_quant': True, 'fuse_attn_quant': False, 'enable_sp': False, 'fuse_gemm_comms': False, 'fuse_allreduce_rms': False, 'fuse_act_padding': False}, 'max_cudagraph_capture_size': 0, 'dynamic_shapes_config': {'type': <DynamicShapesType.BACKED: 'backed'>, 'evaluate_guards': False, 'assume_32_bit_indexing': False}, 'local_cache_dir': None, 'fast_moe_cold_start': True, 'static_all_moe_layers': []}
(EngineCore_DP0 pid=3915) WARNING 03-05 05:49:56 [gpt_oss_triton_kernels_moe.py:55] Using legacy triton_kernels on ROCm
(EngineCore_DP0 pid=3915) INFO 03-05 05:49:58 [parallel_state.py:1307] world_size=1 rank=0 local_rank=0 distributed_init_method=tcp://172.16.1.36:54285 backend=nccl
(EngineCore_DP0 pid=3915) INFO 03-05 05:49:58 [parallel_state.py:1535] rank 0 in world size 1 is assigned as DP rank 0, PP rank 0, PCP rank 0, TP rank 0, EP rank 0, EPLB rank N/A
(EngineCore_DP0 pid=3915) INFO 03-05 05:50:08 [gpu_model_runner.py:4139] Starting to load model Qwen/Qwen3.5-35B-A3B-GPTQ-Int4...
(EngineCore_DP0 pid=3915) INFO 03-05 05:50:09 [rocm.py:208] Set FLASH_ATTENTION_TRITON_AMD_ENABLE=TRUE to enable Flash Attention Triton backend on RDNA.
(EngineCore_DP0 pid=3915) INFO 03-05 05:50:09 [rocm.py:431] Using Torch SDPA backend for ViT model.
(EngineCore_DP0 pid=3915) WARNING 03-05 05:50:09 [activation.py:643] [ROCm] PyTorch's native GELU with tanh approximation is unstable. Falling back to GELU(approximate='none').
(EngineCore_DP0 pid=3915) INFO 03-05 05:50:09 [mm_encoder_attention.py:78] Using AttentionBackendEnum.TORCH_SDPA for MMEncoderAttention.
(EngineCore_DP0 pid=3915) INFO 03-05 05:50:09 [rocm.py:372] Using Triton Attention backend.
(EngineCore_DP0 pid=3915) WARNING 03-05 05:50:10 [compilation.py:1095] Op 'sparse_attn_indexer' not present in model, enabling with '+sparse_attn_indexer' has no effect
(EngineCore_DP0 pid=3915) INFO 03-05 05:50:18 [default_loader.py:293] Loading weights took 6.35 seconds
(EngineCore_DP0 pid=3915) INFO 03-05 05:50:18 [gpu_model_runner.py:4236] Model loading took 21.06 GiB memory and 9.478980 seconds
(EngineCore_DP0 pid=3915) INFO 03-05 05:50:19 [gpu_model_runner.py:5161] Encoder cache will be initialized with a budget of 16384 tokens, and profiled with 1 image items of the maximum feature size.
(EngineCore_DP0 pid=3915) WARNING 03-05 05:50:38 [fused_moe.py:1093] Using default MoE config. Performance might be sub-optimal! Config file not found at /usr/local/lib/python3.12/dist-packages/vllm/model_executor/layers/fused_moe/configs/E=256,N=512,device_name=0x7551,dtype=int4_w4a16.json
(EngineCore_DP0 pid=3915) INFO 03-05 05:50:39 [gpu_worker.py:405] Available KV cache memory: 1.91 GiB
(EngineCore_DP0 pid=3915) INFO 03-05 05:50:39 [kv_cache_utils.py:1314] GPU KV cache size: 24,288 tokens
(EngineCore_DP0 pid=3915) INFO 03-05 05:50:39 [kv_cache_utils.py:1319] Maximum concurrency for 32,768 tokens per request: 2.69x
(EngineCore_DP0 pid=3915) INFO 03-05 05:50:40 [core.py:278] init engine (profile, create kv cache, warmup model) took 21.16 seconds
(EngineCore_DP0 pid=3915) INFO 03-05 05:50:40 [vllm.py:697] Asynchronous scheduling is enabled.
(EngineCore_DP0 pid=3915) WARNING 03-05 05:50:40 [vllm.py:731] Enforce eager set, disabling torch.compile and CUDAGraphs. This is equivalent to setting -cc.mode=none -cc.cudagraph_mode=none
(EngineCore_DP0 pid=3915) WARNING 03-05 05:50:40 [vllm.py:742] Inductor compilation was disabled by user settings, optimizations settings that are only active during inductor compilation will be ignored.
(EngineCore_DP0 pid=3915) INFO 03-05 05:50:40 [vllm.py:855] Cudagraph is disabled under eager mode
INFO 03-05 05:50:40 [llm.py:361] Supported tasks: ['generate']

============================================================
[Q1/197] Apa itu ALELEON Supercomputer?
------------------------------------------------------------


    📚 Sumber (3 chunks):
    • ALELEON Supercomputer  (https://wiki.efisonlt.com/wiki/ALELEON_Supercomputer)
    • Spesifikasi ALELEON Supercomputer  (https://wiki.efisonlt.com/wiki/Spesifikasi_ALELEON_Supercomputer)
    • Pengenalan Menggunakan ALELEON Supercomputer  (https://wiki.efisonlt.com/wiki/Pengenalan_Menggunakan_ALELEON_Supercomputer)

============================================================
[Q2/197] Apa email support admin ALELEON?
------------------------------------------------------------
<think>

</think>

Email untuk menghubungi tim support admin ALELEON adalah **support@efisonlt.com**.

    📚 Sumber (3 chunks):
    • ALELEON Supercomputer  (https://wiki.efisonlt.com/wiki/ALELEON_Supercomputer)
    • Tutorial Menggunakan ALELEON Supercomputer Mk.V  (https://wiki.efisonlt.com/wiki/Tutorial_Menggunakan_ALELEON_Supercomputer_Mk.V)
    • Login Pertama ALELEON Supercomputer  (https://wiki.efisonlt.com/wiki/Login_Pertama_ALELEON_Supercomputer)

============================================================
[Q3/197] Jam kerja support EFISON kapan?
------------------------------------------------------------
<think>

</think>

Jam kerja support EFISON adalah Senin hingga Jumat pukul 09.00 - 17.30 WIB, dengan respon cepat pada waktu tersebut.

    📚 Sumber (3 chunks):
    • Upload - Download File ALELEON  (https://wiki.efisonlt.com/wiki/Upload_-_Download_File_ALELEON)
    • Tutorial Menggunakan ALELEON Supercomputer Mk.V  (https://wiki.efisonlt.com/wiki/Tutorial_Menggunakan_ALELEON_Supercomputer_Mk.V)
    • ALELEON Supercomputer  (https://wiki.efisonlt.com/wiki/ALELEON_Supercomputer)

============================================================
[Q4/197] ALELEON Mk.V menggunakan platform apa?
------------------------------------------------------------


    📚 Sumber (3 chunks):
    • ALELEON Supercomputer  (https://wiki.efisonlt.com/wiki/ALELEON_Supercomputer)
    • Migrasi Akun dan Data Mk.III ke Mk.V  (https://wiki.efisonlt.com/wiki/Migrasi_Akun_dan_Data_Mk.III_ke_Mk.V)
    • Login Pertama ALELEON Supercomputer  (https://wiki.efisonlt.com/wiki/Login_Pertama_ALELEON_Supercomputer)

============================================================
[Q5/197] Sistem operasi apa yang digunakan ALELEON?
------------------------------------------------------------
<think>

</think>

Berdasarkan dokumen referensi yang diberikan, tidak ada informasi spesifik mengenai nama sistem operasi (misalnya Ubuntu, CentOS, atau Red Hat) yang digunakan oleh ALELEON Supercomputer.

Dokumen hanya menyebutkan bahwa fitur **ALELEON Desktop** adalah sesi virtual desktop Linux yang berjalan dengan Desktop Environment **XFCE**, namun tidak merinci versi atau nama distribusi OS-nya secara keseluruhan pada sistem superkomputer tersebut.

    📚 Sumber (3 chunks):
    • ALELEON Supercomputer  (https://wiki.efisonlt.com/wiki/ALELEON_Supercomputer)
    • Pengenalan Menggunakan ALELEON Supercomputer  (https://wiki.efisonlt.com/wiki/Pengenalan_Menggunakan_ALELEON_Supercomputer)
    • SW-GXN  (https://wiki.efisonlt.com/wiki/SW-GXN)

============================================================
[Q6/197] Versi Slurm yang digunakan ALELEON berapa?
------------------------------------------------------------
<think>

</think>

Saya tidak menemukan informasi mengenai versi spesifik Slurm yang digunakan di ALELEON pada dokumen referensi.

    📚 Sumber (3 chunks):
    • Metode Komputasi di ALELEON  (https://wiki.efisonlt.com/wiki/Metode_Komputasi_di_ALELEON)
    • Pengenalan Menggunakan ALELEON Supercomputer  (https://wiki.efisonlt.com/wiki/Pengenalan_Menggunakan_ALELEON_Supercomputer)
    • Core Hour  (https://wiki.efisonlt.com/wiki/Core_Hour)

============================================================
[Q7/197] Apa nama portal web untuk menggunakan ALELEON?
------------------------------------------------------------
<think>

</think>

Portal web untuk menggunakan ALELEON Supercomputer bernama **EFIRO Web Service (EWS)**.

Anda dapat mengaksesnya melalui alamat:
[https://aleleonsuper.computer](https://aleleonsuper.computer)

    📚 Sumber (3 chunks):
    • ALELEON Supercomputer  (https://wiki.efisonlt.com/wiki/ALELEON_Supercomputer)
    • Login Pertama ALELEON Supercomputer  (https://wiki.efisonlt.com/wiki/Login_Pertama_ALELEON_Supercomputer)
    • SW-GXN  (https://wiki.efisonlt.com/wiki/SW-GXN)

============================================================
[Q8/197] Apa URL untuk login ke EFIRO Web Service?
------------------------------------------------------------
<think>

</think>

URL untuk login ke EFIRO Web Service adalah **https://aleleonsuper.computer**.

    📚 Sumber (3 chunks):
    • EFIRO Account Manager  (https://wiki.efisonlt.com/wiki/EFIRO_Account_Manager)
    • Login Pertama ALELEON Supercomputer  (https://wiki.efisonlt.com/wiki/Login_Pertama_ALELEON_Supercomputer)
    • Tutorial Menggunakan ALELEON Supercomputer Mk.V  (https://wiki.efisonlt.com/wiki/Tutorial_Menggunakan_ALELEON_Supercomputer_Mk.V)

============================================================
[Q9/197] Apa itu EFIRO Account Manager?
------------------------------------------------------------
<think>

</think>

EFIRO Account Manager (EAM) adalah portal web yang berfungsi untuk manajemen informasi akun dan password pengguna ALELEON Supercomputer.

Melalui EAM, pengguna dapat melakukan fitur berikut:
*   **Manajemen Personal Info:** Mengganti email (memerlukan verifikasi setelah logout/login kembali), nama depan, dan nama belakang.
*   **Keamanan Akun:** Mengganti password dan mengatur Two-factor Authentication (2FA).
*   **Pemantauan Aktivitas:** Memantau aktivitas login pada menu *Account security > Device activity*.

Untuk mengakses EAM, buka tautan berikut dan login menggunakan username serta password user:
https://login.efisonlt.com

    📚 Sumber (3 chunks):
    • EFIRO Account Manager  (https://wiki.efisonlt.com/wiki/EFIRO_Account_Manager)
    • Tutorial Menggunakan ALELEON Supercomputer Mk.V  (https://wiki.efisonlt.com/wiki/Tutorial_Menggunakan_ALELEON_Supercomputer_Mk.V)
    • X  (https://wiki.efisonlt.com/wiki/X)

============================================================
[Q10/197] Bagaimana cara mengganti password akun ALELEON?
------------------------------------------------------------
<think>

</think>

Untuk mengganti password akun ALELEON, silakan ikuti langkah-langkah berikut melalui EFIRO Account Manager (EAM):

1.  Buka web **https://login.efisonlt.com**.
2.  Login dengan username dan password user.
3.  Masuk ke menu **Account security > Signing In**.
4.  Klik tombol **[Update]** pada bagian Password.
5.  Buat password baru dan klik tombol **[Submit]**.

Catatan: Perubahan password akan berlaku untuk sesi login berikutnya.

    📚 Sumber (3 chunks):
    • Login Pertama ALELEON Supercomputer  (https://wiki.efisonlt.com/wiki/Login_Pertama_ALELEON_Supercomputer)
    • EFIRO Account Manager  (https://wiki.efisonlt.com/wiki/EFIRO_Account_Manager)
    • Tutorial Menggunakan ALELEON Supercomputer Mk.V  (https://wiki.efisonlt.com/wiki/Tutorial_Menggunakan_ALELEON_Supercomputer_Mk.V)

============================================================
[Q11/197] Berapa jumlah node di partisi epyc?
------------------------------------------------------------
<think>

</think>

Partisi epyc memiliki 2 node.

    📚 Sumber (3 chunks):
    • Spesifikasi ALELEON Supercomputer  (https://wiki.efisonlt.com/wiki/Spesifikasi_ALELEON_Supercomputer)
    • CP2K  (https://wiki.efisonlt.com/wiki/CP2K)
    • ORCA  (https://wiki.efisonlt.com/wiki/ORCA)

============================================================
[Q12/197] CPU apa yang digunakan di partisi epyc?
------------------------------------------------------------
<think>

</think>

Partisi epyc pada ALELEON Supercomputer menggunakan CPU **AMD EPYC 7702P** dengan spesifikasi:
- **1x AMD EPYC 7702P**, **64 core / 128 thread**, **2.0Ghz**.

    📚 Sumber (3 chunks):
    • Spesifikasi ALELEON Supercomputer  (https://wiki.efisonlt.com/wiki/Spesifikasi_ALELEON_Supercomputer)
    • Daftar Software Komputasi dan Tutorial Penggunaan  (https://wiki.efisonlt.com/wiki/Daftar_Software_Komputasi_dan_Tutorial_Penggunaan)
    • CP2K  (https://wiki.efisonlt.com/wiki/CP2K)

============================================================
[Q13/197] Berapa RAM efektif per node di partisi epyc?
------------------------------------------------------------
<think>

</think>

Berdasarkan dokumen referensi, RAM efektif per node pada partisi **epyc** adalah **240GB**.

    📚 Sumber (3 chunks):
    • Spesifikasi ALELEON Supercomputer  (https://wiki.efisonlt.com/wiki/Spesifikasi_ALELEON_Supercomputer)
    • Kode Reason ALELEON Supercomputer  (https://wiki.efisonlt.com/wiki/Kode_Reason_ALELEON_Supercomputer)
    • ORCA  (https://wiki.efisonlt.com/wiki/ORCA)

============================================================
[Q14/197] Berapa RAM efektif di partisi epyc-jumbo?
------------------------------------------------------------
<think>

</think>

Berdasarkan dokumen referensi, RAM efektif pada partisi **epyc-jumbo** adalah **500GB**.

    📚 Sumber (3 chunks):
    • Spesifikasi ALELEON Supercomputer  (https://wiki.efisonlt.com/wiki/Spesifikasi_ALELEON_Supercomputer)
    • GMX-MMPBSA  (https://wiki.efisonlt.com/wiki/GMX-MMPBSA)
    • Kode Reason ALELEON Supercomputer  (https://wiki.efisonlt.com/wiki/Kode_Reason_ALELEON_Supercomputer)

============================================================
[Q15/197] GPU apa yang digunakan di partisi ampere?
------------------------------------------------------------
<think>

</think>

Saya tidak menemukan informasi spesifik mengenai jenis GPU yang digunakan di partisi ampere di dokumen referensi. Dokumen hanya menyebutkan penggunaan partisi `ampere` untuk job GPU pada LAMMPS dan CP2K tanpa rincian spesifikasi hardwarenya.

    📚 Sumber (3 chunks):
    • Daftar Software Komputasi dan Tutorial Penggunaan  (https://wiki.efisonlt.com/wiki/Daftar_Software_Komputasi_dan_Tutorial_Penggunaan)
    • LAMMPS  (https://wiki.efisonlt.com/wiki/LAMMPS)
    • CP2K  (https://wiki.efisonlt.com/wiki/CP2K)

============================================================
[Q16/197] Berapa jumlah GPU di compute node ampere?
------------------------------------------------------------
<think>

</think>

Berdasarkan spesifikasi Compute Node pada partisi **ampere**, jumlah GPU di setiap node adalah **2x NVIDIA RTX 3090 24GB NVLink**.

    📚 Sumber (3 chunks):
    • Spesifikasi ALELEON Supercomputer  (https://wiki.efisonlt.com/wiki/Spesifikasi_ALELEON_Supercomputer)
    • Daftar Software Komputasi dan Tutorial Penggunaan  (https://wiki.efisonlt.com/wiki/Daftar_Software_Komputasi_dan_Tutorial_Penggunaan)
    • CP2K  (https://wiki.efisonlt.com/wiki/CP2K)

============================================================
[Q17/197] Apa interkoneksi yang digunakan di partisi epyc?
------------------------------------------------------------
<think>

</think>

Partisi epyc menggunakan interkoneksi **Mellanox RoCE 100Gbps**.

    📚 Sumber (3 chunks):
    • Spesifikasi ALELEON Supercomputer  (https://wiki.efisonlt.com/wiki/Spesifikasi_ALELEON_Supercomputer)
    • Tutorial Menggunakan ALELEON Supercomputer Mk.V  (https://wiki.efisonlt.com/wiki/Tutorial_Menggunakan_ALELEON_Supercomputer_Mk.V)
    • SW-AJFT  (https://wiki.efisonlt.com/wiki/SW-AJFT)

============================================================
[Q18/197] Berapa kapasitas hot storage SSD di ALELEON?
------------------------------------------------------------
<think>

</think>

Berdasarkan dokumen referensi, kapasitas **Hot storage** (SSD SAS) untuk HOME dan workdir di ALELEON Supercomputer adalah **28TB efektif**.

    📚 Sumber (3 chunks):
    • Spesifikasi ALELEON Supercomputer  (https://wiki.efisonlt.com/wiki/Spesifikasi_ALELEON_Supercomputer)
    • ALELEON Supercomputer  (https://wiki.efisonlt.com/wiki/ALELEON_Supercomputer)
    • Pendaftaran dan Biaya ALELEON Supercomputer  (https://wiki.efisonlt.com/wiki/Pendaftaran_dan_Biaya_ALELEON_Supercomputer)

============================================================
[Q19/197] Berapa kapasitas cold storage HDD di ALELEON?
------------------------------------------------------------
<think>
Thinking Process:

1.  **Analyze the Request:**
    *   User Question: "Berapa kapasitas cold storage HDD di ALELEON?" (What is the capacity of cold storage HDD in ALELEON?)
    *   Role: AI Admin Assistant for HPC Slurm.
    *   Language: Indonesian.
    *   Constraints:
        *   Answer ONLY based on provided reference documents.
        *   Quote steps/commands/specs EXACTLY as written (no rounding, no adding precision).
        *   If info can be inferred, provide conclusion.
        *   If info is NOT in document, say "Saya tidak menemukan informasi tersebut di sistem."
        *   Do not fabricate numbers, formulas, commands, URLs, or procedures.
        *   Do not replace commands with alternatives.
        *   Distinguish between "minimal" and "maksimal".
        *   Do not output chain of thought.
        *   Greet politely without mentioning the reference document explicitly in the opening.

2.  **Scan Reference Documents for Keywords:**
    *   Keywords: "cold storage", "HDD", "kapasitas", "storage", "ALELEON".
    *   Document 1: [Sumber: Spesifikasi ALELEON Supercomputer]
        *   Section "Spesifikasi Storage Node":
            *   "Jenis storage Block-storage, protokol NFS"
            *   "HOME and workdir Hot storage - SSD SAS 28TB efektif"
            *   "Cold storage - HDD SAS 83TiB efektif"
            *   "Interkoneksi Mellanox RoCE 100Gbps"
    *   Document 2: [Sumber: ALELEON Supercomputer]
        *   General welcome page, no specific storage specs.
    *   Document 3: [Sumber: Pendaftaran dan Biaya ALELEON Supercomputer]
        *   Mentions storage HOME size for individual users (150 GiB), but not cold storage capacity for the system.

3.  **Extract Information:**
    *   From Document 1, Section "Spesifikasi Storage Node":
    *   Line: "Cold storage - HDD SAS 83TiB efektif"

4.  **Verify Constraints:**
    *   Must use exact text/numbers: "83TiB".
    *   Must answer in Indonesian.
    *   Must not add extra info (like "efektif" might need to be included if it's part of the spec line, but the question asks for capacity. The text says "83TiB efektif". I should quote exactly what describes the capacity).
    *   Constraint 2: "Sertakan angka, nama, versi, dan spesifikasi PERSIS seperti tertulis di dokumen." -> So "83TiB" is the key number. The text says "83TiB efektif". I will state it exactly as found.

5.  **Formulate Answer:**
    *   Based on "Spesifikasi Storage Node" in the first document.
    *   Capacity: 83TiB efektif.
    *   Draft: Berdasarkan dokumen spesifikasi, kapasitas cold storage HDD di ALELEON adalah 83TiB efektif.

6.  **Refine Answer:**
    *   Ensure politeness.
    *   Ensure no external knowledge is added.
    *   Check exact wording: "Cold storage - HDD SAS 83TiB efektif".
    *   Final Answer Construction: Kapasitas cold storage HDD di ALELEON adalah 83TiB efektif.

7.  **Final Review against Constraints:**
    *   No chain of thought? Yes.
    *   Only based on docs? Yes.
    *   Exact numbers? Yes (83TiB).
    *   Language Indonesian? Yes.
    *   Polite greeting? Yes (implied or explicit). Let's make it polite. "Selamat pagi/siang... Berikut informasinya..." or just direct answer politely. Rule 0 says "langsung saja menyapa klien dengan sopan". So start with a greeting.

    *   Wait, Rule 0: "Tidak perlu bilang kalo berdasarkan dokumen referensi yang diberikan, langsung saja menyapa klien dengan sopan."
    *   So: "Halo! Berdasarkan informasi yang tersedia..." or similar. But Rule 1 says "Jawab HANYA berdasarkan dokumen referensi". Usually, starting with "Berdasarkan dokumen..." violates Rule 0 slightly if interpreted strictly as "don't mention the doc source", but Rule 1 says "Jawab HANYA berdasarkan dokumen". The instruction 0 says "Tidak perlu bilang kalo berdasarkan dokumen referensi yang diberikan", meaning don't say "Based on the provided reference document...". Just

    📚 Sumber (3 chunks):
    • Spesifikasi ALELEON Supercomputer  (https://wiki.efisonlt.com/wiki/Spesifikasi_ALELEON_Supercomputer)
    • ALELEON Supercomputer  (https://wiki.efisonlt.com/wiki/ALELEON_Supercomputer)
    • Pendaftaran dan Biaya ALELEON Supercomputer  (https://wiki.efisonlt.com/wiki/Pendaftaran_dan_Biaya_ALELEON_Supercomputer)

============================================================
[Q20/197] Apakah ALELEON mendukung CUDA 11 ke bawah di partisi ampere?
------------------------------------------------------------
<think>

</think>

Tidak, partisi ampere pada ALELEON Supercomputer **tidak mendukung CUDA 11 ke bawah**.

Sesuai spesifikasi sistem, arsitektur GPU NVIDIA Ampere yang digunakan di partisi tersebut memiliki ketentuan: "Tidak mendukung CUDA 11 kebawah."

    📚 Sumber (3 chunks):
    • Spesifikasi ALELEON Supercomputer  (https://wiki.efisonlt.com/wiki/Spesifikasi_ALELEON_Supercomputer)
    • TRIAL A6  (https://wiki.efisonlt.com/wiki/TRIAL_A6)
    • ALELEON Supercomputer  (https://wiki.efisonlt.com/wiki/ALELEON_Supercomputer)

============================================================
[Q21/197] Apa itu CCH?
------------------------------------------------------------


    📚 Sumber (3 chunks):
    • Core Hour  (https://wiki.efisonlt.com/wiki/Core_Hour)
    • Software Komputasi dari User  (https://wiki.efisonlt.com/wiki/Software_Komputasi_dari_User)
    • AI Compilation  (https://wiki.efisonlt.com/wiki/AI_Compilation)

============================================================
[Q22/197] Apa itu GH?
------------------------------------------------------------


    📚 Sumber (3 chunks):
    • Software Komputasi dari User  (https://wiki.efisonlt.com/wiki/Software_Komputasi_dari_User)
    • AI Compilation  (https://wiki.efisonlt.com/wiki/AI_Compilation)
    • AutoGluon  (https://wiki.efisonlt.com/wiki/AutoGluon)

============================================================
[Q23/197] Berapa harga CCH untuk golongan perseorangan akademia?
------------------------------------------------------------
<think>

</think>

Harga CPU Core Hour (CCH) untuk golongan perseorangan akademia adalah **Rp555,-/CCH**.

    📚 Sumber (3 chunks):
    • Core Hour  (https://wiki.efisonlt.com/wiki/Core_Hour)
    • Pendaftaran dan Biaya ALELEON Supercomputer  (https://wiki.efisonlt.com/wiki/Pendaftaran_dan_Biaya_ALELEON_Supercomputer)
    • Software Komputasi dari User  (https://wiki.efisonlt.com/wiki/Software_Komputasi_dari_User)

============================================================
[Q24/197] Berapa harga GH untuk golongan perseorangan non-akademia?
------------------------------------------------------------
assistant

<think>
Thinking Process:

1.  **Analyze the Request:**
    *   User Question: "Berapa harga GH untuk golongan perseorangan non-akademia?" (What is the price of GH for individual non-academic group?)
    *   Role: HPC Slurm Admin AI Assistant.
    *   Language: Indonesian.
    *   Constraints:
        *   Answer ONLY based on the provided reference document.
        *   Quote steps/commands EXACTLY as in the document.
        *   Include numbers, names, versions, specs EXACTLY as written (no rounding).
        *   If info can be inferred, provide the inference.
        *   If info is NOT in the document, say "Saya tidak menemukan informasi tersebut di sistem."
        *   Do not fabricate anything.
        *   Do not change commands from the document.
        *   Distinguish between "minimal" and "maksimal".
        *   Do not output chain of thought.
        *   Start with a polite greeting, do not mention "based on the reference document".

2.  **Scan the Reference Document:**
    *   Look for keywords: "Harga", "GH", "GPU Hour", "Perseorangan", "Non-akademia".
    *   Found Section: "5. Biaya Layanan Core Hour ALELEON"
    *   Found Table:
        *   Metrik: GPU Hour (GH)
        *   GOLONGAN PERSEORANGAN -> Non-akademia: Rp8585,-/GH
    *   Found Definition: "Golongan perseorangan non-akademia adalah user selain golongan akademia."

3.  **Extract Information:**
    *   Price for GPU Hour (GH) under Individual Non-Academic Group (GOLONGAN PERSEORANGAN - Non-akademia): Rp8585,-/GH.

4.  **Formulate Answer:**
    *   Greeting: Salam/sapaan sopan.
    *   Direct Answer: State the price exactly as found.
    *   Context (Optional but helpful based on doc structure): Mention it's part of the pricing table for ALELEON Supercomputer.
    *   Constraint Check: Ensure exact number "Rp8585,-/GH". No rounding. No extra info not in doc.

5.  **Drafting the Response:**
    *   Sapaan: Selamat siang, selamat datang di layanan bantuan admin HPC Slurm ALELEON.
    *   Jawaban: Berdasarkan dokumen referensi, biaya layanan GPU Hour (GH) untuk golongan perseorangan non-akademia adalah Rp8585,-/GH.
    *   Additional detail from doc: Note bahwa harga termasuk PPN mengikuti kebijakan berlaku Pemerintah Indonesia.

6.  **Refining based on strict constraints:**
    *   "Jawab HANYA berdasarkan dokumen referensi."
    *   "Sertakan angka, nama, versi, dan spesifikasi PERSIS seperti tertulis di dokumen."
    *   "Tidak perlu bilang kalo berdasarkan dokumen referensi yang diberikan, langsung saja menyapa klien dengan sopan."

    *   Draft:
        Selamat siang, selamat datang di layanan bantuan admin HPC Slurm ALELEON.

        Untuk Golongan Perseorangan Non-akademia, biaya layanan GPU Hour (GH) adalah Rp8585,-/GH.

        Harga ini termasuk PPN mengikuti kebijakan berlaku Pemerintah Indonesia.

7.  **Final Review:**
    *   Does it match the doc? Yes, Section 5 table shows "Rp8585,-/GH" for "GOLONGAN PERSEORANGAN Non-akademia" under "GPU Hour (GH)".
    *   Is the language Indonesian? Yes.
    *   Did I mention "based on reference"? No, I greeted directly.
    *   Are numbers exact? Yes (Rp8585,-/GH).
    *   Is there any hallucination? No.

8.  **Final Polish:** Keep it concise and clear.

    "Selamat siang, selamat datang di layanan bantuan admin HPC Slurm ALELEON.

    Berdasarkan informasi pada tabel Biaya Layanan Core Hour ALELEON, harga untuk metrik GPU Hour (GH) pada golongan perseorangan non-akademia adalah Rp8585,-/GH.

    Perlu dicatat bahwa harga termasuk PPN mengikuti kebijakan berlaku Pemerintah Indonesia."

    Wait, constraint says "Jangan outputkan chain of thought... langsung saja jawab dengan ringkas dan jelas." and "Tidak perlu bilang kalo berdasarkan dokumen referensi yang diberikan, langsung saja menyapa klien dengan sopan."

    So I should avoid saying "Berdasarkan informasi..." if possible, or just state it fact

    📚 Sumber (3 chunks):
    • Software Komputasi dari User  (https://wiki.efisonlt.com/wiki/Software_Komputasi_dari_User)
    • AI Compilation  (https://wiki.efisonlt.com/wiki/AI_Compilation)
    • Pendaftaran dan Biaya ALELEON Supercomputer  (https://wiki.efisonlt.com/wiki/Pendaftaran_dan_Biaya_ALELEON_Supercomputer)

============================================================
[Q25/197] Berapa storage HOME yang didapatkan pengguna perseorangan?
------------------------------------------------------------


    📚 Sumber (3 chunks):
    • Pendaftaran dan Biaya ALELEON Supercomputer  (https://wiki.efisonlt.com/wiki/Pendaftaran_dan_Biaya_ALELEON_Supercomputer)
    • Software Komputasi dari User  (https://wiki.efisonlt.com/wiki/Software_Komputasi_dari_User)
    • Upload - Download File ALELEON  (https://wiki.efisonlt.com/wiki/Upload_-_Download_File_ALELEON)

============================================================
[Q26/197] Berapa masa aktif akun perseorangan?
------------------------------------------------------------
assistant<think>
Thinking Process:

1.  **Analyze the Request:**
    *   Role: HPC Slurm Admin AI Assistant.
    *   Task: Answer user questions based *only* on the provided reference documents.
    *   Language: Indonesian (clear).
    *   Rules:
        *   Do not mention "based on reference document".
        *   Only answer based on the document.
        *   Quote steps/commands exactly as in the document.
        *   Include numbers, names, versions, specs EXACTLY as written (no rounding).
        *   If info can be inferred, give the conclusion.
        *   If info is NOT in the document, say "Saya tidak menemukan informasi tersebut di sistem."
        *   Do not invent numbers, formulas, commands, URLs, or procedures.
        *   Do not replace commands with alternatives.
        *   Distinguish "minimal" and "maksimal".
        *   No chain of thought output.

2.  **Analyze the User Question:**
    *   Question: "Berapa masa aktif akun perseorangan?" (What is the active period for individual accounts?)

3.  **Scan the Reference Documents:**
    *   Document 1: [Sumber: Pendaftaran dan Biaya ALELEON Supercomputer]
    *   Document 2: [Sumber: Migrasi Akun dan Data Mk.III ke Mk.V]
    *   Document 3: [Sumber: Komputasi Python] (Deleted page, irrelevant).

    *   Search keywords in Document 1: "masa aktif", "akun perseorangan".
    *   Found section: "4.1. Golongan Perseorangan".
    *   Text found: "Masa aktif akun adalah 1 tahun semenjak pembelian terakhir Kuota Core Hour."

4.  **Verify Information:**
    *   The document explicitly states the active period for individual accounts (Golongan Perseorangan).
    *   Specific text: "Masa aktif akun adalah 1 tahun semenjak pembelian terakhir Kuota Core Hour."
    *   Are there any other conditions? There is a grace period mentioned ("Setelah melewati masa aktif, akun akan memasuki masa tenggang selama 1 bulan."), but the question asks for "masa aktif" (active period), not grace period.
    *   Is there conflicting info in Document 2? Document 2 talks about migration from Mk.III to Mk.V and mentions free usage until Oct 31, 2025 for Mk.V, but the core definition of account validity for individuals comes from Document 1.
    *   Rule 2 requires exact wording/numbers. "1 tahun".

5.  **Formulate the Answer:**
    *   Direct answer based on Document 1, Section 4.1.
    *   Language: Indonesian.
    *   Tone: Polite and direct.

6.  **Drafting the Response:**
    *   Masa aktif akun perseorangan adalah 1 tahun semenjak pembelian terakhir Kuota Core Hour.
    *   Check against rules: Exact wording? Yes ("1 tahun"). Context? Yes.

7.  **Final Review:**
    *   Does it violate any rules? No.
    *   Is it clear? Yes.
    *   Does it add external info? No.

8.  **Final Output Generation:** (Matches the draft)
    "Masa aktif akun perseorangan adalah 1 tahun semenjak pembelian terakhir Kuota Core Hour."
    (Maybe add context about grace period if relevant, but strictly speaking, the question asks for "masa aktif". I will stick to the specific definition to be precise.)
    Actually, looking at Rule 3: "Jika informasi bisa DISIMPULKAN dari dokumen, berikan kesimpulan tersebut."
    The text says "Masa aktif akun adalah 1 tahun...". So stating that is accurate.

    Let's refine slightly to be polite as per instruction "langsung saja menyapa klien dengan sopan".
    "Halo, berdasarkan informasi yang tersedia..." -> Wait, Rule 0 says "Tidak perlu bilang kalo berdasarkan dokumen referensi yang diberikan, langsung saja menyapa klien dengan sopan."
    Okay, so start with a greeting or just the answer politely.
    "Selamat datang. Masa aktif akun perseorangan adalah 1 tahun semenjak pembelian terakhir Kuota Core Hour."

    Wait, Rule 0 says "Jangan outputkan chain of thought atau proses berpikirmu, langsung saja jawab dengan ringkas dan jelas."
    And "langsung saja menyapa klien dengan sopan."

    Okay, final plan:
    Greet politely.
    State the fact exactly as per document.

    Draft:
    Selamat datang. Masa aktif akun perseorangan

    📚 Sumber (3 chunks):
    • Pendaftaran dan Biaya ALELEON Supercomputer  (https://wiki.efisonlt.com/wiki/Pendaftaran_dan_Biaya_ALELEON_Supercomputer)
    • Migrasi Akun dan Data Mk.III ke Mk.V  (https://wiki.efisonlt.com/wiki/Migrasi_Akun_dan_Data_Mk.III_ke_Mk.V)
    • Komputasi Python  (https://wiki.efisonlt.com/wiki/Komputasi_Python)

============================================================
[Q27/197] Apa rumus menghitung CPU Core Hour?
------------------------------------------------------------
<think>

</think>

Berdasarkan dokumen referensi, rumus untuk menghitung CPU Core Hour (CCH) adalah sebagai berikut:

1.  Hitung **Slurm CPU core minutes** terlebih dahulu:
    `Slurm CPU core minutes = jumlah alokasi core CPU * waktu job berjalan (satuan menit)`

2.  Konversikan ke **ALELEON CPU Core Hour (CCH)**:
    `ALELEON CPU Core Hour (CCH) = Slurm Core Minutes / 60`

Perlu dicatat bahwa perhitungan ini berlaku dengan pembulatan kebawah dan hanya dihitung ketika job komputasi sedang berjalan di Compute/Interactive Node.

    📚 Sumber (3 chunks):
    • Core Hour  (https://wiki.efisonlt.com/wiki/Core_Hour)
    • Sausage dan Aturan Metrik Penggunaan ALELEON  (https://wiki.efisonlt.com/wiki/Sausage_dan_Aturan_Metrik_Penggunaan_ALELEON)
    • Pendaftaran dan Biaya ALELEON Supercomputer  (https://wiki.efisonlt.com/wiki/Pendaftaran_dan_Biaya_ALELEON_Supercomputer)

============================================================
[Q28/197] Apa nama modul GROMACS versi CPU 2025.3?
------------------------------------------------------------
<think>

</think>

Berdasarkan dokumen referensi, nama modul GROMACS versi CPU 2025.3 adalah:

`gromacs/2025.3-gcc-15.2.0-lyo`

    📚 Sumber (3 chunks):
    • GROMACS  (https://wiki.efisonlt.com/wiki/GROMACS)
    • CP2K  (https://wiki.efisonlt.com/wiki/CP2K)
    • Daftar Software Komputasi dan Tutorial Penggunaan  (https://wiki.efisonlt.com/wiki/Daftar_Software_Komputasi_dan_Tutorial_Penggunaan)

============================================================
[Q29/197] Apa nama modul GROMACS versi GPU 2025.3?
------------------------------------------------------------
assistant<think>

</think>

Nama modul GROMACS versi GPU 2025.3 adalah `gromacs/2025.3-gcc-13.4.0-cuda-12.9.0-pue`.

    📚 Sumber (3 chunks):
    • GROMACS  (https://wiki.efisonlt.com/wiki/GROMACS)
    • LAMMPS  (https://wiki.efisonlt.com/wiki/LAMMPS)
    • CP2K  (https://wiki.efisonlt.com/wiki/CP2K)

============================================================
[Q30/197] Versi ORCA berapa yang tersedia di ALELEON?
------------------------------------------------------------
<think>
Thinking Process:

1.  **Analyze the Request:**
    *   User Question: "Versi ORCA berapa yang tersedia di ALELEON?" (What version of ORCA is available on ALELEON?)
    *   Role: HPC Slurm Admin AI Assistant.
    *   Constraints:
        *   Use Indonesian language.
        *   Answer ONLY based on the provided reference documents.
        *   Quote steps/commands EXACTLY as in the document.
        *   Include numbers, names, versions, specs EXACTLY as written (no rounding or adding precision).
        *   If information can be inferred, provide the conclusion.
        *   If information is NOT found, state "Saya tidak menemukan informasi tersebut di sistem."
        *   Do not make up commands, URLs, etc.
        *   Do not change commands from the document to alternatives.
        *   Distinguish "minimal" and "maksimal".
        *   No chain of thought output.

2.  **Scan the Reference Documents for Keywords:**
    *   Keywords: "ORCA", "Versi", "Version", "ALELEON".
    *   Document Source: [Sumber: ORCA] seems most relevant.
    *   Section: "1. Daftar Instalasi ORCA".
    *   Table Content:
        *   Versi: 6.0.1
        *   Modul Lmod: orca/avx2-6.0.1-none-none-63l
        *   Template Job Composer: ORCA 6.0.1
        *   Support Hardware: MPI: Multi-core CPU, Multi-node
        *   GPU: -
        *   Komputasi Paralel: Hubungi support tim admin untuk permintaan instalasi versi lain.

3.  **Synthesize the Answer:**
    *   The document explicitly states under "Daftar Instalasi ORCA" that Version 6.0.1 is available.
    *   It also mentions contacting admin for other versions ("Hubungi support tim admin untuk permintaan instalasi versi lain.").
    *   I need to state the version exactly as written: "6.0.1".

4.  **Draft the Response (Internal Draft):**
    *   Based on the document "Daftar Instalasi ORCA", the version available is 6.0.1.
    *   Module name is orca/avx2-6.0.1-none-none-63l.
    *   If they want other versions, contact admin.

5.  **Refine according to constraints:**
    *   Language: Indonesian.
    *   Exact quotes: "6.0.1", "orca/avx2-6.0.1-none-none-63l".
    *   No extra info not in doc.
    *   Direct answer.

6.  **Final Polish:**
    *   "Berdasarkan dokumen referensi, versi ORCA yang tersedia di ALELEON adalah 6.0.1."
    *   Add detail about the module if helpful but keep it exact.
    *   Mention the note about other versions.

7.  **Final Check against Constraints:**
    *   Did I say "based on reference"? Constraint 0 says: "Tidak perlu bilang kalo berdasarkan dokumen referensi yang diberikan, langsung saja menyapa klien dengan sopan." -> So start directly or politely without saying "According to the document".
    *   Did I copy commands/versions exactly? Yes (6.0.1).
    *   Is it only from the doc? Yes.

8.  **Constructing the Output:**
    *   Greeting: Halo! (Sopan)
    *   Answer: Versi ORCA yang tersedia adalah 6.0.1.
    *   Additional Info from table: Modul Lmod: orca/avx2-6.0.1-none-none-63l.
    *   Note on other versions: Hubungi support tim admin untuk permintaan instalasi versi lain.

    *Wait, constraint 0 says:* "Tidak perlu bilang kalo berdasarkan dokumen referensi yang diberikan, langsung saja menyapa klien dengan sopan. Jangan outputkan chain of thought atau proses berpikirmu, langsung saja jawab dengan ringkas dan jelas."
    *So I should greet politely but not mention the source explicitly like "Based on the document".*

    *Draft:*
    Halo! Versi ORCA yang tersedia di ALELEON adalah 6.0.1.

    Berikut detailnya:
    - Versi: 6.0.1
    - Modul Lmod: orca/avx2-6.0.1-none-none-63l
    -

    📚 Sumber (3 chunks):
    • EUREKA!  (https://wiki.efisonlt.com/wiki/EUREKA!)
    • ORCA  (https://wiki.efisonlt.com/wiki/ORCA)
    • EUREKA! Periode 2  (https://wiki.efisonlt.com/wiki/EUREKA!_Periode_2)

============================================================
[Q31/197] Apa nama modul Quantum ESPRESSO 7.4.1?
------------------------------------------------------------
<think>

</think>

Nama modul Quantum ESPRESSO versi 7.4.1 adalah `quantum-espresso/7.4.1-gcc-15.2.0-c4j`.

    📚 Sumber (3 chunks):
    • Quantum ESPRESSO  (https://wiki.efisonlt.com/wiki/Quantum_ESPRESSO)
    • BoltzTraP2  (https://wiki.efisonlt.com/wiki/BoltzTraP2)
    • SIESTA  (https://wiki.efisonlt.com/wiki/SIESTA)

============================================================
[Q32/197] Apa nama modul CP2K versi GPU?
------------------------------------------------------------
</think>

Berdasarkan dokumen referensi, nama modul CP2K versi GPU adalah:

`cp2k/2025.2-gcc-13.4.0-cuda-12.9.0-k6i`

    📚 Sumber (3 chunks):
    • CP2K  (https://wiki.efisonlt.com/wiki/CP2K)
    • GAMESS  (https://wiki.efisonlt.com/wiki/GAMESS)
    • LAMMPS  (https://wiki.efisonlt.com/wiki/LAMMPS)

============================================================
[Q33/197] Versi LAMMPS berapa yang tersedia di ALELEON?
------------------------------------------------------------
<think>

</think>

Versi LAMMPS yang tersedia di ALELEON adalah **22 July 2025**.

Terdapat dua varian modul dengan detail berikut:

1.  **Versi CPU**
    *   Nama Modul: `lammps/20250722-gcc-13.4.0-rvj`
    *   Deskripsi: LAMMPS 22 July 2025 (CPU)

2.  **Versi GPU**
    *   Nama Modul: `lammps/20250722-gcc-13.4.0-cuda-12.9.0-l7l`
    *   Deskripsi: LAMMPS 22 July 2025 (GPU)

    📚 Sumber (3 chunks):
    • LAMMPS  (https://wiki.efisonlt.com/wiki/LAMMPS)
    • Daftar Software Komputasi dan Tutorial Penggunaan  (https://wiki.efisonlt.com/wiki/Daftar_Software_Komputasi_dan_Tutorial_Penggunaan)
    • Spesifikasi ALELEON Supercomputer  (https://wiki.efisonlt.com/wiki/Spesifikasi_ALELEON_Supercomputer)

============================================================
[Q34/197] Apa nama modul SIESTA yang tersedia?
------------------------------------------------------------
<think>

</think>

Berdasarkan dokumen referensi, nama modul Lmod SIESTA yang tersedia adalah:

**SIESTA/5.4.1-GCC14.2-AOCL5.1**

    📚 Sumber (3 chunks):
    • SIESTA  (https://wiki.efisonlt.com/wiki/SIESTA)
    • Software Komputasi dari User  (https://wiki.efisonlt.com/wiki/Software_Komputasi_dari_User)
    • Komputasi Python dengan Python venv User  (https://wiki.efisonlt.com/wiki/Komputasi_Python_dengan_Python_venv_User)

============================================================
[Q35/197] Apa nama modul OpenMX 3.9?
------------------------------------------------------------
assistant<think>

</think>

Nama modul untuk OpenMX versi 3.9 adalah `openmx/3.9-gcc-13.4.0-4qo`.

    📚 Sumber (3 chunks):
    • OpenMX  (https://wiki.efisonlt.com/wiki/OpenMX)
    • DFTB%2B  (https://wiki.efisonlt.com/wiki/DFTB%2B)
    • GROMACS  (https://wiki.efisonlt.com/wiki/GROMACS)

============================================================
[Q36/197] Apa nama modul PHASE/0 2025?
------------------------------------------------------------
assistant
<think>

</think>

Nama modul untuk PHASE/0 versi 2025 adalah **PHASE0/2025-GCC14.2-AOCL5.1**.

    📚 Sumber (3 chunks):
    • PHASE/0  (https://wiki.efisonlt.com/wiki/PHASE/0)
    • CP2K  (https://wiki.efisonlt.com/wiki/CP2K)
    • EUREKA! Periode 2  (https://wiki.efisonlt.com/wiki/EUREKA!_Periode_2)

============================================================
[Q37/197] Versi COMCOT berapa yang tersedia?
------------------------------------------------------------
assistant<think>
Thinking Process:

1.  **Analyze the Request:**
    *   User Question: "Versi COMCOT berapa yang tersedia?" (What version of COMCOT is available?)
    *   Role: HPC Slurm Admin AI Assistant.
    *   Language: Indonesian (clear).
    *   Constraints:
        *   Answer ONLY based on the provided reference documents.
        *   Quote steps/commands exactly as in the document.
        *   Include numbers, names, versions, specs EXACTLY as written (no rounding or adding precision).
        *   If information can be inferred, provide the conclusion.
        *   If information is NOT found, say "Saya tidak menemukan informasi tersebut di sistem."
        *   Do not fabricate anything.
        *   Do not replace commands with alternatives.
        *   Distinguish between "minimal" and "maksimal".
        *   Do not output chain of thought.
        *   Do not explicitly mention "based on the reference document".

2.  **Scan Reference Documents:**
    *   I need to look for "COMCOT" in the provided text.
    *   Found section: "[Sumber: COMCOT]"
    *   Subsection: "Modul COMCOT"
    *   Text: "Berikut adalah detail versi COMCOT yang tersedia secara global di ALELEON Supercomputer:"
    *   Table content:
        *   Versi: 1.7
        *   Nama modul: comcot/1.7cpu
        *   Dukungan hardware: CPU (V), GPU (-), OMP (-), Threading (-), MPI (-), multi-node (-)
    *   There is also a mention in "Job Submission Web EFIRO" -> "3 Pilih template COMCOT yang diinginkan: ... COMCOT 1.7"

3.  **Extract Information:**
    *   Available Version: 1.7
    *   Module Name: comcot/1.7cpu

4.  **Formulate Answer:**
    *   Directly answer the question using the extracted info.
    *   Ensure exact wording (e.g., "1.7", not "1.70").
    *   Keep it polite and concise.

5.  **Drafting the Response:**
    *   Berdasarkan dokumen referensi, versi COMCOT yang tersedia secara global di ALELEON Supercomputer adalah versi 1.7.
    *   Detailnya:
        *   Versi: 1.7
        *   Nama modul: comcot/1.7cpu

6.  **Review against Constraints:**
    *   Only based on document? Yes.
    *   Exact numbers/names? Yes (1.7, comcot/1.7cpu).
    *   No chain of thought? Yes.
    *   Polite greeting? Yes ("Selamat datang," or similar implied context, but instruction says "langsung saja menyapa klien dengan sopan"). Let's start with a polite greeting.
    *   No fabrication? Yes.

7.  **Final Polish:**
    *   Greeting: "Halo! Selamat datang di layanan bantuan admin HPC Slurm."
    *   Answer: "Berdasarkan informasi pada modul COMCOT, versi yang tersedia secara global di ALELEON Supercomputer adalah versi 1.7."
    *   Additional detail from table: "Nama modul yang digunakan adalah comcot/1.7cpu."

    Wait, constraint 0 says: "Tidak perlu bilang kalo berdasarkan dokumen referensi yang diberikan, langsung saja menyapa klien dengan sopan. Jangan outputkan chain of thought atau proses berpikirmu, langsung saja jawab dengan ringkas dan jelas."
    So I should greet politely but not say "berdasarkan dokumen". Just answer directly.

    Revised Draft:
    Halo! Selamat datang.

    Versi COMCOT yang tersedia secara global di ALELEON Supercomputer adalah versi 1.7.

    Berikut detailnya:
    - Versi: 1.7
    - Nama modul: comcot/1.7cpu

    Informasi ini dapat dilihat pada bagian Modul COMCOT.

    Check constraints again: "JANGAN outputkan chain of thought atau proses berpikirmu, langsung saja jawab dengan ringkas dan jelas."
    Okay, simple and direct.

    Wait, checking if there are other versions mentioned. The text says "Hubungi tim admin melalui email support@efisonlt.com untuk permintaan instalasi versi lain." This implies only 1.7 is currently available globally.

    Final check on exactness: "1.7" vs "versi 1.7". Document says "Versi 1.7". I will use

    📚 Sumber (3 chunks):
    • COMCOT  (https://wiki.efisonlt.com/wiki/COMCOT)
    • Software Komputasi dari User  (https://wiki.efisonlt.com/wiki/Software_Komputasi_dari_User)
    • CP2K  (https://wiki.efisonlt.com/wiki/CP2K)

============================================================
[Q38/197] Apa nama modul DFTB+ yang tersedia?
------------------------------------------------------------
<think>

</think>

Berdasarkan dokumen referensi, nama modul DFTB+ yang tersedia secara global di ALELEON Supercomputer adalah:

**dftbplus/22.2-GCC11.3-AOCL4.0**

    📚 Sumber (3 chunks):
    • DFTB%2B  (https://wiki.efisonlt.com/wiki/DFTB%2B)
    • Software Komputasi dari User  (https://wiki.efisonlt.com/wiki/Software_Komputasi_dari_User)
    • Katalog Software ALELEON Supercomputer  (https://wiki.efisonlt.com/wiki/Katalog_Software_ALELEON_Supercomputer)

============================================================
[Q39/197] Apa nama modul NAMD versi GPU?
------------------------------------------------------------
assistant

<think>

</think>

Berdasarkan dokumen referensi, nama modul software untuk NAMD versi GPU adalah:

**namd/2.14-GCC10-FFTW3F-CUDA11**

    📚 Sumber (3 chunks):
    • NAMD  (https://wiki.efisonlt.com/wiki/NAMD)
    • LAMMPS  (https://wiki.efisonlt.com/wiki/LAMMPS)
    • GROMACS  (https://wiki.efisonlt.com/wiki/GROMACS)

============================================================
[Q40/197] Apa nama modul NWChem yang tersedia?
------------------------------------------------------------
assistant<think>

</think>

Nama modul NWChem yang tersedia secara global di ALELEON Supercomputer adalah **nwchem/7.0.2-GCC10-OMP-MKL**.

    📚 Sumber (3 chunks):
    • NWChem  (https://wiki.efisonlt.com/wiki/NWChem)
    • Software Komputasi dari User  (https://wiki.efisonlt.com/wiki/Software_Komputasi_dari_User)
    • ACPYPE  (https://wiki.efisonlt.com/wiki/ACPYPE)

============================================================
[Q41/197] Versi Python default dari Anaconda3 2025.06-1 apa?
------------------------------------------------------------
<think>

</think>

Versi Python default dari Anaconda3 2025.06-1 adalah **3.13**.

    📚 Sumber (3 chunks):
    • Komputasi Python dengan Conda Environment User  (https://wiki.efisonlt.com/wiki/Komputasi_Python_dengan_Conda_Environment_User)
    • XUIN Temporary  (https://wiki.efisonlt.com/wiki/XUIN_Temporary)
    • Komputasi Python  (https://wiki.efisonlt.com/wiki/Komputasi_Python)

============================================================
[Q42/197] Perintah apa untuk mengaktifkan Mamba 23.11.0-0?
------------------------------------------------------------
assistant<think>

</think>

Untuk mengaktifkan Mamba 23.11.0-0, gunakan perintah berikut:

```bash
ml Mamba/23.11.0-0
```

    📚 Sumber (3 chunks):
    • Komputasi Python dengan Conda Environment User  (https://wiki.efisonlt.com/wiki/Komputasi_Python_dengan_Conda_Environment_User)
    • GMX-MMPBSA  (https://wiki.efisonlt.com/wiki/GMX-MMPBSA)
    • Software Komputasi dari User  (https://wiki.efisonlt.com/wiki/Software_Komputasi_dari_User)

============================================================
[Q43/197] Bagaimana cara membuat modul pyload setelah conda env aktif?
------------------------------------------------------------
<think>

</think>

Setelah conda env aktif, Anda dapat membuat modul `pyload` dengan mengikuti langkah berikut di terminal:

1.  Pastikan conda environment sudah aktif (ditandai dengan `(env)` di prompt).
2.  Jalankan perintah:
    ```bash
    pyl mod
    ```
3.  Pilih menu **no.1**.
4.  Ikuti alur script yang muncul untuk menyelesaikan pembuatan modul.

    📚 Sumber (3 chunks):
    • Komputasi Python dengan Conda Environment User  (https://wiki.efisonlt.com/wiki/Komputasi_Python_dengan_Conda_Environment_User)
    • Komputasi Python dengan Python venv User  (https://wiki.efisonlt.com/wiki/Komputasi_Python_dengan_Python_venv_User)
    • Komputasi Python  (https://wiki.efisonlt.com/wiki/Komputasi_Python)

============================================================
[Q44/197] Perintah apa untuk melihat daftar modul pyload yang tersedia?
------------------------------------------------------------
assistant<think>

</think>

Untuk melihat daftar modul pyload yang tersedia, gunakan perintah berikut di terminal ALELEON:

```bash
pyl list
```

Perintah ini akan menampilkan daftar modul dengan bagian **USER-DEFINED** yang berisi modul yang telah dibuat oleh user.

    📚 Sumber (3 chunks):
    • Daftar Environment Python ALELEON  (https://wiki.efisonlt.com/wiki/Daftar_Environment_Python_ALELEON)
    • Katalog Software ALELEON Supercomputer  (https://wiki.efisonlt.com/wiki/Katalog_Software_ALELEON_Supercomputer)
    • Komputasi Python dengan Conda Environment User  (https://wiki.efisonlt.com/wiki/Komputasi_Python_dengan_Conda_Environment_User)

============================================================
[Q45/197] Apa perintah untuk mengaktifkan conda env dengan pyload?
------------------------------------------------------------
<think>

</think>

Untuk mengaktifkan conda environment menggunakan modul `pyload`, gunakan perintah berikut di terminal:

```bash
pyl load [nama-modul]
```

Keterangan:
*   `[nama-modul]` diganti dengan nama modul `pyload` yang telah Anda buat sebelumnya.
*   Jika lupa nama modul, Anda dapat melihat daftarnya melalui perintah `pyl list` (lihat bagian **USER-DEFINED**) atau info detailnya dengan `pyl info [nama-modul]`.

    📚 Sumber (3 chunks):
    • Komputasi Python dengan Conda Environment User  (https://wiki.efisonlt.com/wiki/Komputasi_Python_dengan_Conda_Environment_User)
    • TRIAL A6  (https://wiki.efisonlt.com/wiki/TRIAL_A6)
    • Software Komputasi Instalasi User  (https://wiki.efisonlt.com/wiki/Software_Komputasi_Instalasi_User)

============================================================
[Q46/197] Di mana conda env dibuat secara default?
------------------------------------------------------------
<think>

</think>

Berdasarkan dokumen referensi, `conda env` dibuat secara default di direktori `~/.conda/envs`.

    📚 Sumber (3 chunks):
    • Komputasi Python dengan Conda Environment User  (https://wiki.efisonlt.com/wiki/Komputasi_Python_dengan_Conda_Environment_User)
    • Komputasi Python dengan Python venv User  (https://wiki.efisonlt.com/wiki/Komputasi_Python_dengan_Python_venv_User)
    • Komputasi Python  (https://wiki.efisonlt.com/wiki/Komputasi_Python)

============================================================
[Q47/197] Apa perintah untuk mencari modul software berdasarkan keyword?
------------------------------------------------------------
assistant<think>

</think>

Untuk mencari nama modul software berdasarkan keyword di ALELEON Supercomputer, gunakan perintah berikut:

```bash
ml av keyword
```

Ganti `keyword` dengan kata kunci yang Anda cari.

    📚 Sumber (3 chunks):
    • Katalog Software ALELEON Supercomputer  (https://wiki.efisonlt.com/wiki/Katalog_Software_ALELEON_Supercomputer)
    • EasyBuild  (https://wiki.efisonlt.com/wiki/EasyBuild)
    • Troubleshooting dan Support  (https://wiki.efisonlt.com/wiki/Troubleshooting_dan_Support)

============================================================
[Q48/197] Apa perintah untuk menonaktifkan semua modul software aktif?
------------------------------------------------------------
<think>

</think>

Untuk menonaktifkan semua modul software aktif di ALELEON Supercomputer, gunakan perintah berikut:

`$ ml purge`

    📚 Sumber (3 chunks):
    • Katalog Software ALELEON Supercomputer  (https://wiki.efisonlt.com/wiki/Katalog_Software_ALELEON_Supercomputer)
    • EasyBuild  (https://wiki.efisonlt.com/wiki/EasyBuild)
    • Troubleshooting dan Support  (https://wiki.efisonlt.com/wiki/Troubleshooting_dan_Support)

============================================================
[Q49/197] Apa perintah untuk mengganti modul software aktif?
------------------------------------------------------------
<think>

</think>

Untuk mengganti modul software aktif, gunakan perintah berikut:

`$ ml switch modul-aktif modul-pengganti`

    📚 Sumber (3 chunks):
    • Katalog Software ALELEON Supercomputer  (https://wiki.efisonlt.com/wiki/Katalog_Software_ALELEON_Supercomputer)
    • EasyBuild  (https://wiki.efisonlt.com/wiki/EasyBuild)
    • Troubleshooting dan Support  (https://wiki.efisonlt.com/wiki/Troubleshooting_dan_Support)

============================================================
[Q50/197] Versi GCC berapa saja yang tersedia di ALELEON?
------------------------------------------------------------


    📚 Sumber (3 chunks):
    • ALELEON Supercomputer  (https://wiki.efisonlt.com/wiki/ALELEON_Supercomputer)
    • SW-GXN  (https://wiki.efisonlt.com/wiki/SW-GXN)
    • Pengenalan Menggunakan ALELEON Supercomputer  (https://wiki.efisonlt.com/wiki/Pengenalan_Menggunakan_ALELEON_Supercomputer)

============================================================
[Q51/197] Apa saja pilihan cara menjalankan komputasi Python dengan conda env di ALELEON?
------------------------------------------------------------
<think>

</think>

Berdasarkan dokumen referensi, terdapat tiga pilihan cara menjalankan komputasi Python dengan conda environment di ALELEON:

1.  **Batch Job (Terminal)**
    Menjalankan script Python siap jalan yang tidak membutuhkan interaksi user melalui manajemen Slurm di compute node menggunakan terminal. File `.ipynb` harus dikonversi ke file `.py`.

2.  **Batch Job (Web EFIRO / Job Composer)**
    Menjalankan job siap jalan via manajemen Slurm melalui aplikasi **Job Composer** di web EFIRO. User memilih template (CPU atau GPU), mengisi formulir submit script, dan menjalankan job melalui tombol Submit.

3.  **Sesi Jupyter (Interactive Node)**
    Menjalankan sesi interaktif **Jupyter Lab** atau **Notebook** di interactive node. Sesi ini berjalan secara interaktif dan dapat diakses melalui menu **Apps > Jupyter** di web EFIRO.

    📚 Sumber (3 chunks):
    • TRIAL A6  (https://wiki.efisonlt.com/wiki/TRIAL_A6)
    • Komputasi Python dengan Conda Environment User  (https://wiki.efisonlt.com/wiki/Komputasi_Python_dengan_Conda_Environment_User)
    • CP2K  (https://wiki.efisonlt.com/wiki/CP2K)

============================================================
[Q52/197] Apa perbedaan antara menjalankan batch job via Job Composer EWS dan via terminal Slurm?
------------------------------------------------------------
<think>

</think>

Berdasarkan dokumen referensi, berikut adalah perbedaan antara menjalankan Batch Job via **Job Composer EWS** dan melalui **Terminal/Shell Slurm**:

**1. Metode Akses dan Persiapan**
*   **Via Job Composer EWS:**
    *   Dilakukan melalui browser di **[EFIRO Web Service]**.
    *   Login ke [EFIRO Web Service], buka menu **Jobs > Job Composer**.
    *   Buat job baru dengan memilih template (**New Jobs > From Template**).
    *   Upload/edit file komputasi melalui menu **[Edit Files]** (limit 100MB per file) atau menggunakan **[aplikasi SFTP]**.
    *   Menulis submit script melalui menu **[Open Editor]**.
*   **Via Terminal / Shell Slurm:**
    *   Dilakukan melalui CLI (Command Line Interface).
    *   Akses terminal via **[Login SSH]** atau melalui menu **[Clusters > Aleleon Shell Access]** di [EWS].
    *   Siapkan file komputasi menggunakan **[Aplikasi SFTP]** atau melalui menu **[Files > Home Directory]** di [EWS] (limit 100MB per file).
    *   Membuat submit script secara manual dengan format **.sh** (contoh: `submit.sh`).

**2. Cara Menjalankan Job (Submit)**
*   **Via Job Composer EWS:**
    *   Klik tombol **[Submit]** pada antarmuka web.
*   **Via Terminal / Shell Slurm:**
    *   Jalankan perintah shell: `$ sbatch [nama-submit-script]` (Contoh: `$ sbatch submit.sh`).

**3. Pemantauan Status Job**
*   **Via Job Composer EWS:**
    *   Memantau status melalui antarmuka web di kolom **Folder Contents** atau menu **[Jobs > Active Jobs]**.
    *   Mengakses output job melalui menu **[Edit Files]** (mencari file `result-[jobID].txt` dan `error-[jobID].txt`).
    *   Utilisasi CPU/Memori dipantau melalui menu **[Monitoring > Grafana]**.
*   **Via Terminal / Shell Slurm:**
    *   Memantau status menggunakan perintah: `$ squeue -ul $USER`.
    *   Mengakses output job menggunakan perintah terminal seperti `ls`, `cat`, `more`, `tail`.
    *   Utilisasi CPU/Memori dipantau melalui menu **[Monitoring > Grafana]** di [EFIRO Web Service] (setelah login ke layanan tersebut).

**4. Penghentian Job**
*   **Via Job Composer EWS:**
    *   Dokumen tidak menyebutkan perintah spesifik untuk membatalkan job di menu ini, namun menyiratkan penggunaan menu **[Delete]** untuk menghapus ruang job jika diperlukan. Untuk menghentikan job yang sedang berjalan, user disarankan melihat halaman **[Troubleshooting dan Support]**.
*   **Via Terminal / Shell Slurm:**
    *   User dapat langsung menghentikan sesi atau job yang bermasalah dengan perintah: `$ scancel [job-ID]`.

**5. Download Output**
*   **Via Job Composer EWS:** Melalui menu **[Edit Files]** atau menggunakan **[aplikasi SFTP]**.
*   **Via Terminal / Shell Slurm:** Menggunakan **[Aplikasi SFTP]** atau melalui menu **[Files > Home Directory]** di [EWS].

    📚 Sumber (3 chunks):
    • X  (https://wiki.efisonlt.com/wiki/X)
    • Metode Komputasi di ALELEON  (https://wiki.efisonlt.com/wiki/Metode_Komputasi_di_ALELEON)
    • Troubleshooting dan Support  (https://wiki.efisonlt.com/wiki/Troubleshooting_dan_Support)

============================================================
[Q53/197] Bagaimana langkah lengkap membuat conda env baru dan modul pyload dari awal?
------------------------------------------------------------
assistant

<think>

</think>

Berikut adalah langkah lengkap untuk membuat conda env baru dan modul pyload dari awal berdasarkan dokumen referensi:

**1. Buka Terminal ALELEON**
Gunakan salah satu opsi berikut:
*   Login SSH, atau
*   Login [EFIRO Web Service], menu **Clusters > Aleleon Shell Access**.

**2. Aktifkan Modul Lmod Conda**
Pilih versi yang sesuai (tim admin menyarankan versi terbaru).
*   Untuk Anaconda:
    ```bash
    ml Anaconda3/2025.06-1
    ```
    *(Catatan: Hindari `Anaconda3/2024.06-1` karena banyak laporan bug).*
*   Atau untuk Mamba:
    ```bash
    ml Mamba/23.11.0-0
    ```

**3. Buat Conda Environment**
Buat conda env di direktori default `~/.conda/envs`. Pastikan mendefinisikan versi Python.
*   Menggunakan Anaconda:
    ```bash
    conda create -n [nama-env] python=[versi-python]
    ```
    *Contoh:*
    ```bash
    conda create -n skripsi python=3.12
    ```
*   Atau menggunakan Mamba:
    ```bash
    mamba create -n [nama-env] python=[versi-python]
    ```
*   Jika ada file YAML resep instalasi package:
    ```bash
    conda create -f [nama-file-yml].yml
    ```

**4. Aktifkan Conda Env dengan Source**
```bash
source activate [nama-env]
```

**5. Buat Modul Pyload**
Jalankan perintah berikut untuk membuat modul pyload bagi konfigurasinya berikutnya:
```bash
pyl mod
```
Ikuti alur script yang muncul:
1.  Pilih menu no.1.
2.  Ikuti alur script.

Setelah langkah tersebut selesai, conda env dan modul pyload telah siap digunakan.

    📚 Sumber (3 chunks):
    • Komputasi Python dengan Conda Environment User  (https://wiki.efisonlt.com/wiki/Komputasi_Python_dengan_Conda_Environment_User)
    • Software Komputasi Instalasi User  (https://wiki.efisonlt.com/wiki/Software_Komputasi_Instalasi_User)
    • Komputasi Python dengan Python venv User  (https://wiki.efisonlt.com/wiki/Komputasi_Python_dengan_Python_venv_User)

============================================================
[Q54/197] Apa saja status job di squeue dan artinya masing-masing?
------------------------------------------------------------
assistant<think>

</think>

Saya tidak menemukan informasi mengenai daftar status job di `squeue` dan artinya masing-masing di sistem.

Dokumen referensi hanya menyebutkan bahwa user dapat melihat kode **Reason** pada kolom **NODELIST(REASON)** atau **Reason** untuk mengetahui alasan mengapa job berada dalam status **PENDING** (antri) atau **Queued**, namun tidak menjelaskan makna dari berbagai status job lain yang mungkin muncul di output `squeue`.

    📚 Sumber (3 chunks):
    • Kode Reason ALELEON Supercomputer  (https://wiki.efisonlt.com/wiki/Kode_Reason_ALELEON_Supercomputer)
    • Software Komputasi dari User  (https://wiki.efisonlt.com/wiki/Software_Komputasi_dari_User)
    • Troubleshooting dan Support  (https://wiki.efisonlt.com/wiki/Troubleshooting_dan_Support)

============================================================
[Q55/197] Bagaimana cara mengisi formulir Jupyter di EWS untuk conda env user?
------------------------------------------------------------
assistant

<think>

</think>

Berikut adalah langkah-langkah untuk mengisi formulir sesi interaktif Jupyter di EFIRO Web Service (EWS) dengan Conda Environment user:

1.  **Login** ke [EFIRO Web Service].
2.  Buka menu **Interactive Apps > Jupyter**.
3.  Isi formulir berikut sesuai kebutuhan:
    *   **Number of CPU threads**: Sesuaikan dengan kebutuhan.
    *   **Use GPU for the job**: Pilih `no` (tanpa GPU) atau `yes` (1x RTX 3090).
    *   **Number of hours**: Reservasi waktu sesi Jupyter (ditentukan pilihan jumlah CPU, GPU, dan sisa Core Hour).
        *   Untuk mengetahui rentang waktu yang tersedia, jalankan perintah `$ sausage` di terminal ALELEON, pilih menu `slimit`, lalu pilih job type `Interactive Apps`.
    *   **Choose package to run**: Pilih `User provided`.
    *   **Choose how to launch Jupyter**: Pilih `Anaconda / Mamba`.
[...]

Sistem komputasi di ALELEON bersifat **komunal (dibagi bersama)** dengan ketentuan sebagai berikut:
1.  **Login Node**: User berbagi login node dengan user lainnya.
2.  **Compute Node**: User menjalankan komputasi dari login ke compute node melalui sistem manajemen Slurm. Compute node juga bersifat komunal, di mana job akan mengantri jika node penuh hingga ada alokasi sesuai.
3.  **Penanganan Job**: Alokasi dan antrian job diatur oleh Slurm, bukan dijalankan manual atau didedikasikan secara khusus per individu oleh tim admin.

Satu-satunya bagian yang bersifat privat adalah **penyimpanan data HOME**.

    📚 Sumber (3 chunks):
    • Pendaftaran dan Biaya ALELEON Supercomputer  (https://wiki.efisonlt.com/wiki/Pendaftaran_dan_Biaya_ALELEON_Supercomputer)
    • ALELEON Supercomputer  (https://wiki.efisonlt.com/wiki/ALELEON_Supercomputer)
    • Pengenalan Menggunakan ALELEON Supercomputer  (https://wiki.efisonlt.com/wiki/Pengenalan_Menggunakan_ALELEON_Supercomputer)

============================================================
[Q178/197] Berapa latency jaringan antar node di ALELEON?
------------------------------------------------------------
<think>
Thinking Process:

1.  **Analyze the Request:**
    *   User Question: "Berapa latency jaringan antar node di ALELEON?" (What is the network latency between nodes in ALELEON?)
    *   Task: Answer based *only* on the provided reference documents.
    *   Language: Indonesian.
    *   Constraints: No chain of thought output, cite steps/commands exactly, include exact numbers/names/versions, infer if possible but state clearly, say "Saya tidak menemukan informasi tersebut di sistem" if not found, do not fabricate information, distinguish "minimal" vs "maksimal".

2.  **Scan Reference Documents for Keywords:**
    *   Keywords: "latency", "jaringan", "network", "interkoneksi", "speed", "bandwidth".
    *   Document 1 (Spesifikasi ALELEON Supercomputer):
        *   Section "Compute Node CPU": Mentions "Interkoneksi Mellanox RoCE 100Gbps".
        *   Section "Compute Node GPU": Mentions "Interkoneksi Mellanox RoCE 25Gbps".
        *   Section "Storage Node": Mentions "Interkoneksi Mellanox RoCE 100Gbps".
        *   Section "Slurm": Mentions "SLURM 23.11.1-1 dengan protokol PMIX, UCX...".
    *   Document 2 (Pengenalan Menggunakan ALELEON Supercomputer):
        *   Discusses architecture (Login node, Compute node), Slurm management, analogy with printing shop.
        *   No specific network latency numbers mentioned.
    *   Document 3 (Registration/Contact info):
        *   No technical specs.

3.  **Evaluate Findings:**
    *   The documents mention "Interkoneksi" (Interconnection) bandwidth/speed (e.g., Mellanox RoCE 100Gbps, 25Gbps).
    *   The documents *do not* mention "latency" (latensi) specifically. Bandwidth (Gbps) is different from latency (usually measured in microseconds or milliseconds).
    *   There is no information about the latency value in the provided text.

4.  **Formulate Answer:**
    *   Since the information is not present in the documents, I must follow Rule 4: "Jika informasi benar-benar TIDAK ADA di dokumen, katakan 'Saya tidak menemukan informasi tersebut di sistem.'"
    *   I should not guess or use external knowledge about Mellanox RoCE typical latencies.
    *   I should acknowledge what *is* mentioned (bandwidth/interconnection type) to show I read the doc, but confirm latency isn't there. However, Rule 4 says if info is truly NOT THERE, say that phrase. To be polite and helpful while adhering to rules, I can state that only bandwidth is mentioned, but explicitly state latency info is missing.
    *   Strict adherence to Rule 4 suggests saying "Saya tidak menemukan informasi tersebut di sistem." regarding the specific question about latency.
    *   Let's check if mentioning bandwidth counts as answering. The question asks for latency. Bandwidth != Latency. So the answer to "What is latency" is "Information not found".
    *   Best approach: State that the document provides interconnection speed/bandwidth but does not specify latency. Then conclude with the standard phrase for missing info if strictly required, but usually, it's better to explain what *is* available while stating the specific info is missing.
    *   Re-reading Rule 4: "Jika informasi benar-benar TIDAK ADA di dokumen, katakan 'Saya tidak menemukan informasi tersebut di sistem.'"
    *   This implies a direct statement. I will combine the context of what is available (interconnection speed) but clarify latency is not specified.

    *   Refined Plan:
        1.  State that the document mentions Interconnection (Interkoneksi) speed (Bandwidth).
        2.  Quote the speeds found (100Gbps, 25Gbps).
        3.  State clearly that latency value is not mentioned.
        4.  Use the required phrase for missing info.

    *   Wait, looking closely at Rule 4 again. If I say "I don't find latency info", that satisfies the rule. If I add extra info about bandwidth, it might be helpful context but must not confuse the user into thinking bandwidth = latency.
    *   Decision: State that network latency information is not in the document, though interconnection bandwidth is listed.

    *   Draft: Berdasarkan dokumen referensi yang diberikan, spesifikasi hanya mencantumkan kecepatan interkoneksi (bandwidth) seperti Mellanox Ro

    📚 Sumber (3 chunks):
    • Spesifikasi ALELEON Supercomputer  (https://wiki.efisonlt.com/wiki/Spesifikasi_ALELEON_Supercomputer)
    • ALELEON Supercomputer  (https://wiki.efisonlt.com/wiki/ALELEON_Supercomputer)
    • Pengenalan Menggunakan ALELEON Supercomputer  (https://wiki.efisonlt.com/wiki/Pengenalan_Menggunakan_ALELEON_Supercomputer)

============================================================
[Q179/197] Apakah ALELEON mendukung Kubernetes untuk orchestration container?
------------------------------------------------------------
<think>

</think>

Saya tidak menemukan informasi mengenai dukungan Kubernetes untuk orchestration container di dokumen referensi ALELEON Supercomputer. Dokumen hanya menyebutkan penggunaan platform **Apptainer** (dahulu Singularity) untuk menjalankan komputasi berbasis container.

    📚 Sumber (3 chunks):
    • ALELEON Supercomputer  (https://wiki.efisonlt.com/wiki/ALELEON_Supercomputer)
    • Komputasi dengan Container User via Apptainer  (https://wiki.efisonlt.com/wiki/Komputasi_dengan_Container_User_via_Apptainer)
    • Pengenalan Menggunakan ALELEON Supercomputer  (https://wiki.efisonlt.com/wiki/Pengenalan_Menggunakan_ALELEON_Supercomputer)

============================================================
[Q180/197] Berapa versi CUDA tertinggi yang pernah diinstal di ALELEON?
------------------------------------------------------------
<think>

</think>

Berdasarkan dokumen referensi, versi CUDA tertinggi yang tersedia di ALELEON Supercomputer adalah **12.5** (dengan modul `cuda/12.5-cuDNN9.2.1`).

Daftar lengkap versi CUDA yang tersedia dalam sistem:
- 11.2
- 11.6
- 11.8
- 12.0
- 12.1
- 12.3
- 12.4
- 12.5

Informasi mengenai batas maksimal versi CUDA tidak disebutkan secara eksplisit selain daftar modul yang tersedia di atas.

    📚 Sumber (3 chunks):
    • Spesifikasi ALELEON Supercomputer  (https://wiki.efisonlt.com/wiki/Spesifikasi_ALELEON_Supercomputer)
    • TRIAL A6  (https://wiki.efisonlt.com/wiki/TRIAL_A6)
    • ALELEON Supercomputer  (https://wiki.efisonlt.com/wiki/ALELEON_Supercomputer)

============================================================
[Q181/197] Apakah ALELEON menyediakan layanan backup otomatis ke cloud?
------------------------------------------------------------
assistant<think>

</think>

Saya tidak menemukan informasi mengenai layanan backup otomatis ke cloud di sistem.

    📚 Sumber (3 chunks):
    • AutoGluon  (https://wiki.efisonlt.com/wiki/AutoGluon)
    • ALELEON Supercomputer  (https://wiki.efisonlt.com/wiki/ALELEON_Supercomputer)
    • Tutorial Menggunakan ALELEON Supercomputer Mk.V  (https://wiki.efisonlt.com/wiki/Tutorial_Menggunakan_ALELEON_Supercomputer_Mk.V)

============================================================
[Q182/197] Berapa bandwidth NVLink antara 2 GPU RTX 3090 di ALELEON?
------------------------------------------------------------
<think>

</think>

Berdasarkan dokumen referensi, spesifikasi menyebutkan bahwa Compute Node pada partisi **ampere** memiliki GPU **2x NVIDIA RTX 3090 24GB NVLink**. Namun, dokumen hanya mencantumkan "NVLink" sebagai fitur konektivitas antar GPU tanpa menyebutkan angka spesifik bandwidth (misalnya dalam GB/s).

Oleh karena itu, informasi mengenai nilai bandwidth NVLink antara kedua GPU tersebut **tidak tersedia di dokumen**.

    📚 Sumber (3 chunks):
    • Spesifikasi ALELEON Supercomputer  (https://wiki.efisonlt.com/wiki/Spesifikasi_ALELEON_Supercomputer)
    • ALELEON Desktop  (https://wiki.efisonlt.com/wiki/ALELEON_Desktop)
    • Komputasi dengan Container User via Apptainer  (https://wiki.efisonlt.com/wiki/Komputasi_dengan_Container_User_via_Apptainer)

============================================================
[Q183/197] Apakah user bisa mengubah konfigurasi Slurm sendiri?
------------------------------------------------------------
</think>

Berdasarkan dokumen referensi yang tersedia, tidak ada informasi mengenai kemampuan user untuk mengubah konfigurasi Slurm sendiri. Dokumen hanya menjelaskan bahwa Slurm adalah sistem manajemen yang menjalankan job komputasi di ALELEON dan mengatur antrian, eksekusi, output, dll secara otomatis tanpa perlu ditunggui oleh user.

    📚 Sumber (3 chunks):
    • AutoGluon  (https://wiki.efisonlt.com/wiki/AutoGluon)
    • Metode Komputasi di ALELEON  (https://wiki.efisonlt.com/wiki/Metode_Komputasi_di_ALELEON)
    • X  (https://wiki.efisonlt.com/wiki/X)

============================================================
[Q184/197] Berapa waktu rata-rata antrian job di ALELEON?
------------------------------------------------------------
<think>

</think>

Saya tidak menemukan informasi mengenai waktu rata-rata antrian job di dokumen referensi.

    📚 Sumber (3 chunks):
    • Kode Reason ALELEON Supercomputer  (https://wiki.efisonlt.com/wiki/Kode_Reason_ALELEON_Supercomputer)
    • Pendaftaran dan Biaya ALELEON Supercomputer  (https://wiki.efisonlt.com/wiki/Pendaftaran_dan_Biaya_ALELEON_Supercomputer)
    • Limitasi Fair Usage ALELEON Supercomputer  (https://wiki.efisonlt.com/wiki/Limitasi_Fair_Usage_ALELEON_Supercomputer)

============================================================
[Q185/197] Apakah ALELEON support InfiniBand?
------------------------------------------------------------
<think>

</think>

Saya tidak menemukan informasi tersebut di sistem.

    📚 Sumber (3 chunks):
    • ALELEON Supercomputer  (https://wiki.efisonlt.com/wiki/ALELEON_Supercomputer)
    • Pendaftaran dan Biaya ALELEON Supercomputer  (https://wiki.efisonlt.com/wiki/Pendaftaran_dan_Biaya_ALELEON_Supercomputer)
    • Tutorial Menggunakan ALELEON Supercomputer Mk.V  (https://wiki.efisonlt.com/wiki/Tutorial_Menggunakan_ALELEON_Supercomputer_Mk.V)

============================================================
[Q186/197] Berapa jumlah core fisik per CPU AMD EPYC 7702P?
------------------------------------------------------------
<think>

</think>

Berdasarkan dokumen referensi, CPU AMD EPYC 7702P memiliki **64 core** (dan 128 thread).

Hal ini tertulis pada spesifikasi Compute Node untuk partisi *epyc* dan *epyc-jumbo*:
"1x AMD EPYC 7702P, **64 core** / 128 thread, 2.0Ghz".

    📚 Sumber (3 chunks):
    • Spesifikasi ALELEON Supercomputer  (https://wiki.efisonlt.com/wiki/Spesifikasi_ALELEON_Supercomputer)
    • CP2K  (https://wiki.efisonlt.com/wiki/CP2K)
    • MPI ALELEON Supercomputer  (https://wiki.efisonlt.com/wiki/MPI_ALELEON_Supercomputer)

============================================================
[Q187/197] Apakah ALELEON menyediakan layanan pelatihan HPC untuk pemula?
------------------------------------------------------------
<think>

</think>

Ya, ALELEON Supercomputer menyediakan layanan pelatihan dan pendampingan bagi pengguna baru. Berdasarkan dokumen referensi, berikut rinciannya:

1.  **Tutorial Lengkap**: Pengguna mendapatkan tutorial lengkap mengenai penggunaan ALELEON Supercomputer.
2.  **Metode Pendampingan**:
    *   Melalui wiki (dokumen ini).
    *   Melalui email support.
    *   Secara daring (Zoom, Google Meet) dengan waktu yang ditentukan bersama.
3.  **Masa Uji Coba (Khusus Institusi)**: EFISON menawarkan masa uji coba bagi institusi untuk mencoba atau menguji jalannya program komputasi di ALELEON Supercomputer sebelum melakukan kesepakatan PKSPIAS.

Layanan bantuan teknis juga tersedia 24 jam melalui email `support@efisonlt.com`.

    📚 Sumber (3 chunks):
    • ALELEON Supercomputer  (https://wiki.efisonlt.com/wiki/ALELEON_Supercomputer)
    • Pendaftaran dan Biaya ALELEON Supercomputer  (https://wiki.efisonlt.com/wiki/Pendaftaran_dan_Biaya_ALELEON_Supercomputer)
    • Login Pertama ALELEON Supercomputer  (https://wiki.efisonlt.com/wiki/Login_Pertama_ALELEON_Supercomputer)

============================================================
[Q188/197] Berapa uptime SLA yang dijamin oleh EFISON?
------------------------------------------------------------


    📚 Sumber (3 chunks):
    • Upload - Download File ALELEON  (https://wiki.efisonlt.com/wiki/Upload_-_Download_File_ALELEON)
    • Tutorial Menggunakan ALELEON Supercomputer Mk.V  (https://wiki.efisonlt.com/wiki/Tutorial_Menggunakan_ALELEON_Supercomputer_Mk.V)
    • ALELEON Supercomputer  (https://wiki.efisonlt.com/wiki/ALELEON_Supercomputer)

============================================================
[Q189/197] Apakah ALELEON mendukung remote desktop via RDP?
------------------------------------------------------------


    📚 Sumber (3 chunks):
    • ALELEON Desktop  (https://wiki.efisonlt.com/wiki/ALELEON_Desktop)
    • ALELEON Supercomputer  (https://wiki.efisonlt.com/wiki/ALELEON_Supercomputer)
    • SW-GXN  (https://wiki.efisonlt.com/wiki/SW-GXN)

============================================================
[Q190/197] Berapa jumlah mahasiswa yang pernah menggunakan EUREKA?
------------------------------------------------------------
<think>

</think>

Saya tidak menemukan informasi mengenai jumlah mahasiswa yang pernah menggunakan EUREKA di dokumen.

    📚 Sumber (3 chunks):
    • EUREKA!  (https://wiki.efisonlt.com/wiki/EUREKA!)
    • EUREKA! Periode 2  (https://wiki.efisonlt.com/wiki/EUREKA!_Periode_2)
    • ALELEON Supercomputer  (https://wiki.efisonlt.com/wiki/ALELEON_Supercomputer)

============================================================
[Q191/197] Apakah pengguna bisa mengakses BIOS atau firmware node?
------------------------------------------------------------
<think>

</think>

Saya tidak menemukan informasi tersebut di sistem.

    📚 Sumber (3 chunks):
    • Software Komputasi dari User  (https://wiki.efisonlt.com/wiki/Software_Komputasi_dari_User)
    • Komputasi Python dengan Python venv User  (https://wiki.efisonlt.com/wiki/Komputasi_Python_dengan_Python_venv_User)
    • Komputasi Python  (https://wiki.efisonlt.com/wiki/Komputasi_Python)

============================================================
[Q192/197] Apakah ALELEON menyediakan API untuk submit job secara programmatic?
------------------------------------------------------------
<think>

</think>

Saya tidak menemukan informasi mengenai penyediaan API untuk submit job secara programmatic di sistem ALELEON Supercomputer berdasarkan dokumen referensi yang diberikan.

    📚 Sumber (3 chunks):
    • Kode Reason ALELEON Supercomputer  (https://wiki.efisonlt.com/wiki/Kode_Reason_ALELEON_Supercomputer)
    • SW-AMK  (https://wiki.efisonlt.com/wiki/SW-AMK)
    • ALELEON Supercomputer  (https://wiki.efisonlt.com/wiki/ALELEON_Supercomputer)

============================================================
[Q193/197] Berapa jumlah penelitian yang sedang berjalan di ALELEON saat ini?
------------------------------------------------------------
<think>

</think>

Saya tidak menemukan informasi mengenai jumlah penelitian yang sedang berjalan di ALELEON saat ini.

    📚 Sumber (3 chunks):
    • ALELEON Supercomputer  (https://wiki.efisonlt.com/wiki/ALELEON_Supercomputer)
    • EUREKA!  (https://wiki.efisonlt.com/wiki/EUREKA!)
    • Publikasi Pengguna ALELEON Supercomputer  (https://wiki.efisonlt.com/wiki/Publikasi_Pengguna_ALELEON_Supercomputer)

============================================================
[Q194/197] Apakah ALELEON mendukung Singularity selain Apptainer?
------------------------------------------------------------
<think>

</think>

Berdasarkan dokumen referensi, **tidak ada informasi** mengenai dukungan ALELEON terhadap Singularity sebagai platform alternatif yang berjalan bersamaan dengan Apptainer.

Dokumen hanya menyatakan bahwa:
*   Apptainer (yang *dahulu bernama* Singularity) adalah platform container untuk penggunaan HPC di ALELEON.
*   Tim admin menyarankan pengguna untuk memanfaatkan **pyload** sebagai basis menjalankan container di ALELEON.
*   Seluruh panduan operasional (seperti perintah `apptainer`, manajemen modul `pyl`, dan template submit script) menggunakan terminologi dan instruksi khusus untuk **Apptainer**.

    📚 Sumber (3 chunks):
    • ALELEON Supercomputer  (https://wiki.efisonlt.com/wiki/ALELEON_Supercomputer)
    • Komputasi dengan Container User via Apptainer  (https://wiki.efisonlt.com/wiki/Komputasi_dengan_Container_User_via_Apptainer)
    • AutoGluon  (https://wiki.efisonlt.com/wiki/AutoGluon)

============================================================
[Q195/197] Berapa total daya listrik yang dikonsumsi ALELEON Supercomputer?
------------------------------------------------------------
<think>

</think>

Saya tidak menemukan informasi mengenai total daya listrik yang dikonsumsi ALELEON Supercomputer di dokumen referensi.

    📚 Sumber (3 chunks):
    • ALELEON Supercomputer  (https://wiki.efisonlt.com/wiki/ALELEON_Supercomputer)
    • Spesifikasi ALELEON Supercomputer  (https://wiki.efisonlt.com/wiki/Spesifikasi_ALELEON_Supercomputer)
    • Pendaftaran dan Biaya ALELEON Supercomputer  (https://wiki.efisonlt.com/wiki/Pendaftaran_dan_Biaya_ALELEON_Supercomputer)

============================================================
[Q196/197] Apakah ada diskon untuk pembelian core hour dalam jumlah besar?
------------------------------------------------------------
<think>

</think>

Berdasarkan dokumen referensi yang tersedia, tidak ada informasi mengenai diskon untuk pembelian core hour dalam jumlah besar.

Dokumen hanya menyebutkan bahwa:
1.  **Tidak ada batasan minimal atau maksimal** dalam menambah (top-up) kuota core hour.
2.  User menentukan sendiri jumlah pembelian kuota core hour.
3.  Harga satuan CCH dan GH tercantum dalam tabel biaya layanan sesuai golongan pengguna (Perseorangan Akademia, Non-akademia, dan Institusi), tanpa penyebutan skema diskon volume.

    📚 Sumber (3 chunks):
    • Core Hour  (https://wiki.efisonlt.com/wiki/Core_Hour)
    • Pendaftaran dan Biaya ALELEON Supercomputer  (https://wiki.efisonlt.com/wiki/Pendaftaran_dan_Biaya_ALELEON_Supercomputer)
    • Software Komputasi dari User  (https://wiki.efisonlt.com/wiki/Software_Komputasi_dari_User)

============================================================
[Q197/197] Apakah ALELEON berencana upgrade ke GPU NVIDIA H100?
------------------------------------------------------------
<think>

</think>

Saya tidak menemukan informasi tersebut di sistem.

    📚 Sumber (3 chunks):
    • Spesifikasi ALELEON Supercomputer  (https://wiki.efisonlt.com/wiki/Spesifikasi_ALELEON_Supercomputer)
    • ALELEON Supercomputer  (https://wiki.efisonlt.com/wiki/ALELEON_Supercomputer)
    • Komputasi dengan Container User via Apptainer  (https://wiki.efisonlt.com/wiki/Komputasi_dengan_Container_User_via_Apptainer)

============================================================
Selesai — 197 pertanyaan dijawab.
