Memulai proses RAG dengan mesin vLLM...

[1] Membaca & splitting halaman wiki berdasarkan struktur HTML...
    Mengambil sitemap...
    → 63 URL ditemukan
    [1/63] ALELEON Supercomputer: 771 chars
    [2/63] Submit Script ALELEON Supercomputer: 7660 chars
    [3/63] Core Hour: 3615 chars
    [4/63] Katalog Software ALELEON Supercomputer: 6932 chars
    [5/63] Pendaftaran dan Biaya ALELEON Supercomputer: 5348 chars
    [6/63] R: 12150 chars
    [7/63] Spesifikasi ALELEON Supercomputer: 3325 chars
    [8/63] GROMACS: 14179 chars
    [9/63] NWChem: 5806 chars
    [10/63] Quantum ESPRESSO: 8717 chars
    [11/63] GAMESS: 5762 chars
    [12/63] NAMD: 7430 chars
    [13/63] ORCA: 8965 chars
    [14/63] Koneksi VPN ALELEON Supercomputer: 3964 chars
    [15/63] COMCOT: 5626 chars
    [16/63] PHASE/0: 8050 chars
    [17/63] EasyBuild: 2106 chars
    [18/63] MPI ALELEON Supercomputer: 11867 chars
    [19/63] EUREKA!: 413 chars
    [20/63] EUREKA! Periode 2: 2044 chars
    [21/63] Daftar Software Komputasi dan Tutorial Penggunaan: 1788 chars
    [22/63] CP2K: 10557 chars
    [23/63] SPECFEM3D: 30 chars
    [24/63] SW-GXN: 16317 chars
    [25/63] LAMMPS: 10353 chars
    [26/63] DFTB%2B: 7948 chars
    [27/63] OpenMX: 9413 chars
    [28/63] Publikasi Pengguna ALELEON Supercomputer: 3789 chars
    [29/63] Limitasi Fair Usage ALELEON Supercomputer: 2596 chars
    [30/63] Kode Reason ALELEON Supercomputer: 1270 chars
    [31/63] Komputasi Python dengan Conda Environment User: 17551 chars
    [32/63] Komputasi Python: 486 chars
    [33/63] Komputasi dengan Container User via Apptainer: 17524 chars
    [34/63] Trial Testing: 18327 chars
    [35/63] ALELEON Desktop: 2471 chars
    [36/63] Upload - Download File ALELEON: 2000 chars
    [37/63] TRIAL A6: 21518 chars
    [38/63] Troubleshooting dan Support: 7910 chars
    [39/63] Tutorial Menggunakan ALELEON Supercomputer Mk.V: 3056 chars
    [40/63] Login Pertama ALELEON Supercomputer: 1863 chars
    [41/63] EFIRO Account Manager: 2900 chars
    [42/63] Pengantar SSH Key: 2598 chars
    [43/63] Sausage dan Aturan Metrik Penggunaan ALELEON: 6228 chars
    [44/63] Daftar Environment Python ALELEON: 488 chars
    [45/63] Pengenalan Menggunakan ALELEON Supercomputer: 3049 chars
    [46/63] Metode Komputasi di ALELEON: 3683 chars
    [47/63] Migrasi Akun dan Data Mk.III ke Mk.V: 5921 chars
    [48/63] SW-AMK: 6972 chars
    [49/63] Login SSH dan SFTP ALELEON Supercomputer: 4694 chars
    [50/63] SIESTA: 7939 chars
    [51/63] SW-AJFT: 15972 chars
    [52/63] X: 6033 chars
    [53/63] Komputasi Python dengan Python venv User: 203 chars
    [54/63] Software Komputasi Instalasi User: 1340 chars
    [55/63] Phono3py dan Phonopy: 12622 chars
    [56/63] Registrasi SSH Key ALELEON Supercomputer: 5164 chars
    [57/63] BoltzTraP2: 13253 chars
    [58/63] AI Compilation: 203 chars
    [59/63] ACPYPE: 12747 chars
    [60/63] GMX-MMPBSA: 12476 chars
    [61/63] AutoGluon: 488 chars
    [62/63] XUIN Temporary: 5788 chars
    [63/63] Software Komputasi dari User: 203 chars
    → Setelah splitting: 260 chunks

    [Chunk 0] (771 chars):
    Selamat datang di wiki ALELEON Supercomputer! ALELEON Supercomputer adalah layanan superkomputer publik pertama dari EFI...

    [Chunk 1] (1996 chars):
    Halaman ini menjelaskan pemahaman
Submit Script
yang merupakan 'formulir' untuk menjalankan komputasi batch job melalui
...

    [Chunk 2] (1973 chars):
    . SLURM punya ratusan opsi parameter SBATCH dimana panduan ini memberikan daftar esensial dan pemahaman mendalam pada pe...

    [Chunk 3] (1923 chars):
    SBATCH
cpus-per-task
berpasangan dengan SBATCH
ntasks
, contoh:
# ntasks mewakili jumlah core CPU atau proses MPI
#SBATC...

    [Chunk 4] (1630 chars):
    #SBATCH --error=error-%j.txt
`
#SBATCH
--mail
untuk Notifikasi Email
Slurm ALELEON Supercomputer dapat mengirim notifika...

    [Chunk 5] (641 chars):
    module load
nama-modul-software
# Alur jalannya program ...
Daftar modul software yang lengkap dirangkum pada:
Halaman
[...

    [Chunk 6] (1996 chars):
    Core Hour adalah metrik yang digunakan oleh ALELEON Supercomputer untuk menghitung biaya penggunaan bagi penggunanya. Ha...

    [Chunk 7] (1793 chars):
    Slurm GPU minutes
= jumlah alokasi GPU
*
waktu job berjalan (satuan menit)
Kemudian ALELEON menkonversinya ke core hour:...

    [Chunk 8] (1994 chars):
    Halaman ini memuat info daftar software terinstal di ALELEON Supercomputer.
- Daftar isi -
Layanan Gratis Instalasi Soft...

    [Chunk 9] (1932 chars):
    $
ml av
keyword
Mengaktifkan modul software
$
ml
nama-modul
Abaikan pesan berikut
apabila muncul setelah memuat modul:
L...

    [Chunk 10] (1983 chars):
    Open MPI 5.0.8
(GCC 15.2.0)
openmpi/5.0.8-gcc-15.2.0-bip
Open MPI 5.0.8
(GCC 15.2.0 + CUDA 12.9.0)
openmpi/5.0.8-gcc-15....

    [Chunk 11] (1581 chars):
    Compute node GPU (Partisi ampere) terpasang 2x RTX 3090 NVLink sehingga rekomendasi gunakan
multi-GPU NVIDIA library
sep...

    [Chunk 12] (1942 chars):
    Halaman ini memuat informasi pendaftaran akun untuk menggunakan ALELEON Supercomputer beserta biayanya.
- Daftar Isi -
K...

    [Chunk 13] (1920 chars):
    Ketentuan akun golongan perseorangan:
Pengguna perseorangan adalah Warga Negara Indonesia (WNI).
Setuju dengan
[
Syarat ...

    [Chunk 14] (1827 chars):
    yang menjadi acuan penggunaan baik secara bisnis dan teknis.
PKSPIAS ditandatangani atas nama institusi dengan kredensia...

    [Chunk 15] (1965 chars):
    R adalah bahasa interpreter yang didesain untuk mengerjakan komputasi statistika. Pada perkembangannya, bahasa R digunak...

    [Chunk 16] (1982 chars):
    ')
Package akan terinstal di direktori
HOME user
.
Bagi user yang pertama kali melakukan instalasi package R:
Akan ada p...

    [Chunk 17] (1987 chars):
    # -----------------------------------------------------
# Alokasi komputasi SBATCH, input, dan module
# ----------------...

    [Chunk 18] (1997 chars):
    INPUT_FILE
=
"////.R"
# Memuat modul software R
# Daftar modul lihat subbab "Modul R" di atas
module load R////
# ------...

    [Chunk 19] (1962 chars):
    ->
From Template
3
Pilih template R yang diinginkan:
Nama Template
Penjelasan
R 4.3.0 "Already Tomorrow"
Menjalankan R v...

    [Chunk 20] (1969 chars):
    Kolom
Folder Contents
.
8
Untuk menghapus ruang job dan datanya:
Pilih ruang job yang akan dihapus.
Klik menu
Delete
Tip...

    [Chunk 21] (1429 chars):
    Conda environment directory
->
Kosongkan
Software modules
->
Masukkan nama modul R yang digunakan
Environment setup
->
K...

    [Chunk 22] (1974 chars):
    ALELEON Supercomputer saat ini menggunakan
ALELEON Mk.V
- superkomputer
custom
EFISON generasi kelima dengan platform EF...

    [Chunk 23] (1528 chars):
    1.1
Partisi epyc
1.2
Partisi epyc-jumbo
1.3
Partisi ampere
2
Spesifikasi Interactive Node
2.1
Partisi torti
2.2
Partisi ...

    [Chunk 24] (1969 chars):
    [
GROMACS
]
adalah package berkecepatan tinggi untuk komputasi dinamika molekular baik untuk biokimia (seperti protein, ...

    [Chunk 25] (1990 chars):
    Pre-processing berat gunakan batch job.
- Pre-processing di Login Node -
Ketentuan:
Berjalan di login node dengan
alokas...

    [Chunk 26] (1970 chars):
    Aktifkan environment ACPYPE:
$
ml Anaconda3/2024.06-1
$
source activate $CENV1/ACPYPE_2023.10.27
Kemudian user dapat men...

    [Chunk 27] (1980 chars):
    $
sausage
Pilih menu
slimit
, job type
Batch Job
menghitung rentang SBATCH
CPU, memori, GPU, dan time
Info SBATCH lainny...

    [Chunk 28] (1969 chars):
    Pilih ruang job yang akan dihapus lalu klik
[Delete]
Perhatikan opsi ini
menghapus data
di ruang job tersebut.
---
Di Te...

    [Chunk 29] (1998 chars):
    #SBATCH --time=////
# File output terminal, %j merekap no ID job
#SBATCH --output=result-%j.txt
# File output log status...

    [Chunk 30] (1998 chars):
    # Limit waktu job (HH:MM:SS atau D-HH:MM:SS)
# ex: 1 hari -> 24:00:00 atau 1-00:00:00
#SBATCH --time=////
# File output ...

    [Chunk 31] (1566 chars):
    Buka menu
Jobs > Active Jobs
Bila belum, ganti mode
All Jobs
ke
Your Jobs
Klik tombol
>
pada job user yang akan dipantau...

    [Chunk 32] (1989 chars):
    NWChem
adalah software komputasi kimia untuk biomolekul, kimia kuantum, kimia klasik,
Gaussian, nanostructures, solid-st...

    [Chunk 33] (1990 chars):
    # Alokasi jumlah core thread CPU
#SBATCH --ntasks=////
# Alokasi jumlah memori RAM (satuan GB)
#SBATCH --mem=////GB
# Al...

    [Chunk 34] (1955 chars):
    $ scancel 231
Job Submission Web EFIRO
Langkah Job Submission Web EFIRO
1
Login ke web EFIRO
ALELEON Supercomputer.
2
Bu...

    [Chunk 35] (411 chars):
    Folder Contents
Atau dengan membuka menu
Edit Files
Kolom
Folder Contents
.
8
Untuk menghapus ruang job dan datanya:
Pil...

    [Chunk 36] (1990 chars):
    [
Quantum ESPRESSO
]
adalah framework suite untuk kalkulasi
electronic-structure
dan modeling material berdasarkan
densi...

    [Chunk 37] (1997 chars):
    a.
Klik
[Open Editor]
b.
Ikuti petunjuk
NOTES
dan alur script di dalamnya.
c.
Klik
[Save]
untuk menyimpan script.
Info l...

    [Chunk 38] (1969 chars):
    Pilih ruang job yang akan dihapus.
Klik
[Delete]
*
2B. Batch Job dengan Slurm di Terminal
.
Batch job berjalan di
[
comp...

    [Chunk 39] (1956 chars):
    # > File output status dan error
#SBATCH --error=error-%j.txt
# --------------------------------------------------
# Scr...

    [Chunk 40] (1559 chars):
    - contoh membatalkan job ID 231:
$
scancel
231
CG (COMPLETING)
- job selesai dan proses
clean-up
.
CA (CANCELED)
- job d...

    [Chunk 41] (1990 chars):
    GAMESS
(General Atomic and Molecular Electronic Structure System) adalah package
ab-inito
kimia kuantum untuk komputasi ...

    [Chunk 42] (1999 chars):
    # Alokasi jumlah core thread CPU
#SBATCH --ntasks=////
# Alokasi jumlah memori RAM (satuan GB)
#SBATCH --mem=////GB
# Al...

    [Chunk 43] (1937 chars):
    Job Submission Web EFIRO
Langkah Job Submission Web EFIRO
1
Login ke web EFIRO
ALELEON Supercomputer.
2
Buka pinned apps...

    [Chunk 44] (411 chars):
    Folder Contents
Atau dengan membuka menu
Edit Files
Kolom
Folder Contents
.
8
Untuk menghapus ruang job dan datanya:
Pil...

    [Chunk 45] (1981 chars):
    NAMD
adalah framework dinamika molekular yang digunakan untuk komputasi biomolekuler skala besar di HPC. NAMD mendukung ...

    [Chunk 46] (1992 chars):
    # -----------------------------------------------------
# Alokasi komputasi SBATCH, input, dan module
# ----------------...

    [Chunk 47] (1971 chars):
    #SBATCH --output=result-%j.txt
# Definisi file untuk menampung output error log
#SBATCH --error=error-%j.txt
# Nama inpu...

    [Chunk 48] (1995 chars):
    Nama Template
Penjelasan
NAMD 2.14 (CPU)
Menjalankan NAMD 2.14 pada CPU
NAMD 2.14 (GPU)
Menjalankan NAMD 2.14 dengan aks...

    [Chunk 49] (1987 chars):
    [
ORCA
]
adalah package ab-inito kimia kuantum yang menyediakan semua metode
electronic structure
seperti
density functi...

    [Chunk 50] (1985 chars):
    %PAL NPROCS 64 END
*
3. Pilihan Menjalankan Komputasi
Pilih sesuai preferensi user:
[ 3A ]
- Batch job
tampilan web
deng...

    [Chunk 51] (1983 chars):
    dan tutup.
Untuk mengaktifkan pembacaan utilisasi cgroup.
3.
Buka menu
Jobs > Active Jobs
4.
Bila belum, ganti mode
All ...

    [Chunk 52] (1983 chars):
    # --------------------------------------------------
# ------ Spesifikasi reservasi job (SBATCH) --------
# Terdapat ren...

    [Chunk 53] (1769 chars):
    -> output terminal
error-
jobID
.txt
-> log status job
Monitor Sausage -
Jalankan sausage:
$
sausage
1. Menu
sausage
: K...

    [Chunk 54] (1999 chars):
    HOL'UP! Halaman ini bersifat LEGACY untuk ALELEON Mk.III (saat ini sudah Mk.V).
Kebijakan keamanan ALELEON Supercomputer...

    [Chunk 55] (1899 chars):
    Ikuti langkah berikut untuk menambah dan mengaktifkan profil OVPN sesuai perangkat user masing-masing:
Langkah untuk use...

    [Chunk 56] (395 chars):
    Jangan tutup terminal ini supaya koneksi OVPN tetap berjalan.
- / 4 / -
Untuk menutup koneksi VPN lakukan
ctlr + C
pada ...

    [Chunk 57] (1982 chars):
    COMCOT (Cornell Multi-grid Coupled Tsunami Grid)
adalah software pemodelan tsunami yang menggunakan metode
Shallow Water...

    [Chunk 58] (1990 chars):
    #SBATCH --ntasks=////
# Alokasi jumlah memori RAM (satuan GB)
#SBATCH --mem=////GB
# Alokasi limit waktu menjalankan job...

    [Chunk 59] (1923 chars):
    Job Composer
di homepage EFIRO.
Pilih menu
New Job
->
From Template
3
Pilih template COMCOT yang diinginkan:
Nama Templa...

    [Chunk 60] (294 chars):
    Pilih ruang job yang akan dihapus.
Klik menu
Delete
Pelaporan Kendala dan Support
Apabila menjumpai masalah teknis dalam...

    [Chunk 61] (1986 chars):
    [
PHASE/0
]
adalah program untuk menghitung struktur elektronik yang berbasis DFT (density functional theory) dan skema ...

    [Chunk 62] (1963 chars):
    c.
Klik
[Save]
untuk menyimpan script.
Info lengkap submit script lihat
[
Submit Script ALELEON
]
.
(5)
Jalankan job den...

    [Chunk 63] (1988 chars):
    ]
Panduan ini mengasumsikan user dapat menggunakan terminal Linux.
(1)
Buka terminal ALELEON dengan opsi:
[
Login SSH
];...

    [Chunk 64] (1992 chars):
    # Memuat modul Lmod PHASE/0
# Daftar nama dan info modul lihat subbab 1
module load PHASE0////
# Input binary untuk menj...

    [Chunk 65] (844 chars):
    - job ditahan oleh tim admin.
Notifikasi dan alasan dikabarkan via email support.
Bila user merasa job gagal berjalan:
J...

    [Chunk 66] (2106 chars):
    Daftar isi
1
Deskripsi
2
Mengatur Direktori Instalasi Software
3
Melihat Daftar Software yang Tersedia dari EasyConfig
4...

    [Chunk 67] (1952 chars):
    Halaman ini menjelaskan teknis menjalankan program
MPI
di ALELEON Supercomputer secara
[
batch job
]
melalui
[
submit sc...

    [Chunk 68] (1991 chars):
    Mencakup berbagai kombinasi SBATCH yang berhubungan dengan alokasi CPU contoh
ntasks
*
cpus-per-task
,
nodes
*
ntasks-pe...

    [Chunk 69] (1927 chars):
    192 proses MPI menggunakan 2 node.
User mengisi SBATCH mem sebesar = 400GB / 2 =
200GB
`
3.3. Opsi Skenario Menjalankan ...

    [Chunk 70] (573 chars):
    # Lihat penjelasan di bawah, sesuaikan dengan jenis OMP
# Perintah menjalankan program MPI
# $SLURM_NTASKS mewakili ntas...

    [Chunk 71] (333 chars):
    # Threading OMP
AMD BLIS
(BLAS-like Library Instantiation Software)
export BLIS_JC_NT=1
export BLIS_IC_NT=${SLURM_CPUS_P...

    [Chunk 72] (1994 chars):
    # Threading OMP
Intel MKL
(Math Kernel Library)
threads=${SLURM_CPUS_PER_TASK}
export OMP_NUM_THREADS=${threads}
export ...

    [Chunk 73] (1988 chars):
    Selain Pure MPI, user juga dapat menjalankan program hybrid MPI/OMP secara multi-node manual dengan catatan:
SBATCH
cpus...

    [Chunk 74] (1888 chars):
    # Partisi GPU
#SBATCH --partition=ampere
# Alokasi jumlah core thread CPU dan jumlah proses MPI
#SBATCH --ntasks=////
# ...

    [Chunk 75] (413 chars):
    EUREKA! adalah
program sponsorship layanan gratis penggunaan ALELEON Superkomputer
bagi Warga Negara Indonesia yang seda...

    [Chunk 76] (2044 chars):
    EUREKA! Periode 2 adalah instalasi kedua dari
EUREKA!
yaitu program sponsorship layanan gratis penggunaan ALELEON bagi W...

    [Chunk 77] (1788 chars):
    Halaman ini bagian dari:
[
Tutorial Menggunakan ALELEON Mk.V
]
Halaman ini merangkum daftar software komputasi dan tutor...

    [Chunk 78] (1967 chars):
    [
CP2K
]
adalah package untuk
quantum chemistry
dan
solid state physics
yang dapat melakukan simulasi liquid, molekolar,...

    [Chunk 79] (1991 chars):
    Job Name
dan klik
[Create New Job]
3
Siapkan file komputasi yang dibutuhkan di ruang job ini:
Upload / edit file di menu...

    [Chunk 80] (1986 chars):
    Completed
- job selesai.
User dapat menjalankan ulang job dengan klik
[Submit]
Failed
- job berhenti karena error atau d...

    [Chunk 81] (1998 chars):
    #    User dapat mengubah bagian yang perlu diubah.
# -----------------------------------------------------
# -----------...

    [Chunk 82] (1988 chars):
    # -----------------------------------------------------
# Partisi GPU
#SBATCH --partition=ampere
# Jumlah core thread CP...

    [Chunk 83] (1537 chars):
    Bila belum, ganti mode
All Jobs
ke
Your Jobs
Klik tombol
>
pada job user yang akan dipantau
Pembacaan utilisasi CPU dan ...

    [Chunk 84] (30 chars):
    SPECFEM3D adalah software .......

    [Chunk 85] (1990 chars):
    Ini adalah panduan spesifik bagi user group gxn untuk menggunakan ALELEON Supercomputer.
- Daftar isi -
Login dan Akun A...

    [Chunk 86] (1994 chars):
    Online Documentation:
wiki ALELEON ini.
Change HPC Password:
lihat
[
EAM - Mengganti Password
]
.
Submit Support Ticket:...

    [Chunk 87] (1975 chars):
    4. Pilihan Menjalankan Komputasi
Berikut opsi yang dapat dipilih sesuai kebutuhan dan preferensi user.
Pengenalan piliha...

    [Chunk 88] (1992 chars):
    Kolom
Folder Contents
Kolom
Folder Contents
Atau menu
[Edit Files]
Bila mengikuti template, Slurm menghasilkan output:
r...

    [Chunk 89] (1999 chars):
    Buat script dengan format
.sh
Nama bebas, contoh
submit.sh
Lengkapi script dengan contoh template di bawah ini.
Versi sa...

    [Chunk 90] (1993 chars):
    export
OMP_NUM_THREADS
=
$SLURM_CPUS_PER_TASK
# Perintah menjalankan FLACS-CFD
fgc - ////
run_runflacs version _omp ////...

    [Chunk 91] (1979 chars):
    # Daftar modul lihat subbab "Modul FLACS-CFD" di atas
module load flacs-cfd////
# FLACS CS INPUT FILES WITH WILDCARD. Ex...

    [Chunk 92] (1978 chars):
    - Output job -
Gunakan perintah seperti:
ls
,
cat
,
more
,
tail
, dll
Bila mengikuti template, Slurm menghasilkan output...

    [Chunk 93] (849 chars):
    ---
Ketentuan support:
Respon cepat pada hari / jam kerja EFISON -> Senin - Jumat, 09.00 - 17.30 WIB.
Hari libur -> Sabt...

    [Chunk 94] (1023 chars):
    # export OMP thread dan jalankan FLACS-CFD versi OMP
export OMP_NUM_THREADS=$SLURM_CPUS_PER_TASK
run_runflacs version _o...

    [Chunk 95] (1989 chars):
    [
LAMMPS
]
(Large-scale Atomic/Molecular Massively Parallel Simulator)
adalah framework molekular dinamik untuk pemodela...

    [Chunk 96] (1991 chars):
    [Edit Files]
Dapat upload / download / manajemen / edit file.
Limit upload 100MB per file
Bila lebih gunakan
[
Aplikasi ...

    [Chunk 97] (1978 chars):
    Bila user merasa job gagal berjalan:
Job tertahan
(status Queue)
dalam waktu lama -> lihat
[
Troubleshooting 1
]
Komputa...

    [Chunk 98] (1961 chars):
    # Spesifikasi job (SBATCH)
# -----------------------------------------------------
# Jumlah core thread CPU, minimal 2
#...

    [Chunk 99] (1985 chars):
    #SBATCH --gpus=////
# Jumlah memori RAM (satuan GB)
#SBATCH --mem=////GB
# Limit waktu job (HH:MM:SS atau D-HH:MM:SS)
# ...

    [Chunk 100] (1322 chars):
    Bila butuh job berhenti ...
jalankan perintah:
$
scancel
[job-ID]
- Job ID ada pada squeue diatas.
contoh membatalkan jo...

    [Chunk 101] (1985 chars):
    DFTB+
adalah software package yang versatil untuk simulasi
mechanical quantum
. DFTB+ merupakan software tidak berbayar ...

    [Chunk 102] (1946 chars):
    #SBATCH --ntasks
-> mewakili jumlah task MPI
#SBATCH --cpus-per-task
-> mewakili jumlah thread OpenMP
Apabila ingin MPI ...

    [Chunk 103] (1947 chars):
    # -----------------------------------------------------
# -----------------------------------------------------
# Alokas...

    [Chunk 104] (1969 chars):
    Job selesai dan dalam proses clean-up
CA (CANCELED)
Job dibatalkan user
PR (PREEMPETED)
Job dibatalkan admin, alasan dik...

    [Chunk 105] (765 chars):
    Failed
Job berhenti karena error atau di stop user.
Untuk melihat alasan job yang queue:
Buka pinned apps
Active Jobs
di...

    [Chunk 106] (1994 chars):
    [
OpenMX
]
adalah software package untuk simulasi material skala nano berdasarkan DFT (Density Functional Theories), nor...

    [Chunk 107] (1973 chars):
    Limit upload 100MB per file.
Bila lebih gunakan
[
Aplikasi SFTP
]
ke direktori Job Composer.
.
(4)
Isi kolom
submit scri...

    [Chunk 108] (1988 chars):
    Menu
[Edit Files]
Arahkan
[
Aplikasi SFTP
]
ke direktori Job Composer.
.
User dapat menghapus ruang job dan datanya:
Pil...

    [Chunk 109] (1998 chars):
    # > Jumlah memori RAM (satuan GB)
#SBATCH --mem=////GB
# > Total reservasi waktu job
# > Format HH:MM:SS atau D-HH:MM:SS...

    [Chunk 110] (1982 chars):
    Membaca cgroup usage, mean, last, max, min
Bila butuh job berhenti ...
jalankan perintah:
$
scancel
[job-ID]
- Job ID li...

    [Chunk 111] (356 chars):
    ,
isi kedua parameter tersebut:
Contoh 2 proses MPI dan 4 thread OMP per MPI sehingga total memakai 8 core CPU:
- Hybrid...

    [Chunk 112] (1929 chars):
    Berikut adalah daftar publikasi dari pengguna yang menyertakan kredit (
acknowledge
) akan sistem ALELEON Supercomputer....

    [Chunk 113] (1987 chars):
    Defect formation energies of Ag- and Sr-doped 3C-SiC: A first-principles study
International Journal of Computational Ma...

    [Chunk 114] (146 chars):
    Density Functional Theory Study of Intermolecular Interactions between Amylum and Cellulose
Indonesia Journal of Chemist...

    [Chunk 115] (1967 chars):
    Per tanggal 3 Februari 2023, ALELEON Supercomputer mengimplementasikan aturan baru berupa
Limitasi Fair Usage (LFU)
yait...

    [Chunk 116] (826 chars):
    Alokasi Komputasi
Limit Maksimal
Akun Perseorangan
Akun Institusi
Akun Uji Coba
Walltime
1
3 hari (72 jam)
Sesuai PKSPIA...

    [Chunk 117] (1270 chars):
    Pada pembacaan status antrian job squeue, tab NODELIST(REASON) dapat memberikan alasan kenapa job terpending. Berikut ad...

    [Chunk 118] (1991 chars):
    Halaman ini menjelaskan langkah menjalankan komputasi Python di ALELEON dengan
conda environment
yang dibuat user.
Pada ...

    [Chunk 119] (1992 chars):
    *)
Terkait Anaconda3 2024.06-1:
Karena banyaknya laporan bug, sementara hindari Anaconda ini.
Bagi user yang membuat con...

    [Chunk 120] (1999 chars):
    nvidia-nccl
.
Perhatikan kelengkapan instalasi package NVIDIA CUDA yang dibutuhkan seperti cuDNN, cuBLAS, cuFFT, dll.
.
...

    [Chunk 121] (1197 chars):
    Conda Environment User (CPU)
Berjalan di
c
ompute node
CPU
Conda Environment User (GPU)
Berjalan dengan akselerasi GPU d...

    [Chunk 122] (1943 chars):
    - Jalankan:
$
pip install --user pyusb
.
(5)
Isi kolom
submit script
untuk menulis alur jalannya job:
a.
Klik
[Open Edit...

    [Chunk 123] (1319 chars):
    .
User dapat menghapus ruang job dan datanya:
Pilih ruang job yang akan dihapus.
Klik
[Delete]
*
5B. Batch Job dengan Sl...

    [Chunk 124] (1970 chars):
    - Jalankan:
$
pip install --user pyusb
.
(4)
Buat
submit script
untuk menulis alur jalannya job:
Format
.sh
dan nama scr...

    [Chunk 125] (1989 chars):
    # Conda environment User (GPU)
# rev.250226
#
# NOTES:
# (1) Isi bagian yang ditandai 4 garing (////).
# (2) Ikuti petun...

    [Chunk 126] (1986 chars):
    result-
jobID
.txt
-> output terminal
error-
jobID
.txt
-> log status job
Monitor Sausage -
Jalankan sausage:
$
sausage
...

    [Chunk 127] (1933 chars):
    Ditentukan pilihan jumlah CPU, GPU, dan sisa Core Hour.
Mengetahui rentang waktu:
1.
Buka menu
Clusters > Aleleon Shell ...

    [Chunk 128] (598 chars):
    Ketika user
keluar saat ada cell jalan
dan kembali masuk:
Bisa jadi cell tsb. tidak menampilkan aktivitas cell.
Lihat st...

    [Chunk 129] (486 chars):
    Maaf, halaman ini baru saja dihapus (dalam rentang waktu 24 jam).
Log penghapusan, perlindungan, dan pemindahan halaman ...

    [Chunk 130] (1996 chars):
    Halaman ini menjelaskan langkah menjalankan software komputasi user yang dikemas dalam
container image
melalui platform
...

    [Chunk 131] (1993 chars):
    $
apptainer pull docker://
[image-pull-tag]
- Platform shub
$
apptainer pull shub://
[image-pull-tag]
- Platform OCI com...

    [Chunk 132] (1816 chars):
    ~/.pymodules
---
5. Pilihan Menjalankan Komputasi
Pilih sesuai preferensi user:
[ 5A ]
- Batch job
tampilan web
dengan
J...

    [Chunk 133] (1943 chars):
    - Jalankan:
$
pip install --user pyusb
.
(5)
Isi kolom
submit script
untuk menulis alur jalannya job:
a.
Klik
[Open Edit...

    [Chunk 134] (1342 chars):
    .
User dapat menghapus ruang job dan datanya:
Pilih ruang job yang akan dihapus.
Klik
[Delete]
*
5B. Batch Job dengan Sl...

    [Chunk 135] (1994 chars):
    - Jalankan:
$
pip install --user pyusb
.
(4)
Buat
submit script
untuk menulis alur jalannya job:
Format
.sh
dan nama scr...

    [Chunk 136] (1981 chars):
    apprun /bin/bash
<< 'COMMAND'
////
COMMAND
Template submit script -
- versi GPU
Berjalan dengan akselerasi GPU di
comput...

    [Chunk 137] (1998 chars):
    $
sbatch
[nama-submit-script]
- Contoh:
$
sbatch
submit.sh
.
(6)
Pantau status jalannya job dengan perintah
squeue
$
squ...

    [Chunk 138] (1985 chars):
    Sesi Jupyter berjalan di
[
interactive node
]
(1)
Cek apakah image SIF yang akan digunakan punya package Jupyter:
1.
Buk...

    [Chunk 139] (1793 chars):
    $
pyl info
[nama-modul]
3.
Gunakan info pyload:
Apptainer image PATH
-> User provided .sif container
User dapat save set...

    [Chunk 140] (1975 chars):
    Halaman ini menjabarkan tutorial untuk pengujian software komputasi dan hardware di ALELEON Supercomputer. Silahkan liha...

    [Chunk 141] (1990 chars):
    3
Isi formulir untuk memulai sesi Jupyter dengan panduan berikut:
Choose Jupyter version
pilih sesuai preferensi user, J...

    [Chunk 142] (1981 chars):
    Mamba
dan ditampung pada
conda environment.
Langkah membuat conda environment gmxMMPBSA
1
Muat modul berikut:
$ ml Mamba...

    [Chunk 143] (1965 chars):
    #SBATCH --time=////
# Definisi file untuk menampung output terminal program
#SBATCH --output=result-%j.txt
# Definisi fi...

    [Chunk 144] (1784 chars):
    Env bernama
boltztrap2
(bisa diganti)
$
conda create -n boltztrap2 python=3.11
---| 3 |---
Aktifkan dengan perintah
sour...

    [Chunk 145] (1988 chars):
    BoltzTraP2 25.3.1
Anaconda3/2024.02-1
3.11.3
pip
V
X
V
V
Mengaktifkan Conda Env di Login Node
User dapat mengaktifkan co...

    [Chunk 146] (1997 chars):
    $
ml unload Anaconda
Apabila ada pesan ini, abaikan:
the module ... cannot be unloaded because it was not loaded
---| 2 ...

    [Chunk 147] (1991 chars):
    ]
Untuk SBATCH notifikasi email status jalannya job lihat
[
Slurm Jojo
]
---| 3 |---
Jalankan job dengan perintah:
$
sba...

    [Chunk 148] (1984 chars):
    Pastikan ruang job yang dipilih adalah yang akan digunakan.
Upload / download / edit file via menu
Edit Files
Upload / d...

    [Chunk 149] (1951 chars):
    ]
ALELEON Supercomputer.
---| 2 |---
Lakukan persiapan sebelum sesi Jupyter:
Untuk efisiensi sesi terkait batasan waktu ...

    [Chunk 150] (542 chars):
    Gunakan kernel
Python 3 (ipykernel)
untuk sesi Jupyter.
---| 8 |---
Sesi Jupyter tidak terputus ketika:
Koneksi user ter...

    [Chunk 151] (2471 chars):
    ALELEON Desktop adalah sesi interaktif virtual desktop berbasiskan Desktop Environment (DE) Linux xfce.
Halaman ini bagi...

    [Chunk 152] (2000 chars):
    Halaman ini menjelaskan opsi dan langkah transfer data (
upload - download file
) ALELEON Supercomputer (Mk.V):
Subbab
[...

    [Chunk 153] (1995 chars):
    Ini adalah panduan
all-in-one
untuk masa uji coba user dengan
kode [A]/6
.
Daftar isi
1
Login ALELEON Supercomputer
2
Sp...

    [Chunk 154] (1976 chars):
    Supaya user dapat melakukan hal serupa apabila membutuhkan membuat conda env lain,
contoh untuk instalasi package yang t...

    [Chunk 155] (1998 chars):
    Menggunakan terminal!
User EFIRO klik app
Aleleon Shell Access
atau menu
Apps > Aleleon Shell Access
---| 1 |---
Muat at...

    [Chunk 156] (1988 chars):
    user keluar (log out) dari ALELEON.
Ketika user keluar dari sesi Jupyter saat ada cell berjalan dan kembali masuk:
Bisa ...

    [Chunk 157] (1971 chars):
    11.8
cuda/11.8-cuDNN8.6.0
12.0
cuda/12.0-cuDNN8.7.0
12.1
cuda/12.1-cuDNN8.8.1
12.3
cuda/12.3-cuDNN8.9.6
12.4
cuda/12.4-c...

    [Chunk 158] (1997 chars):
    Apabila menggunakan conda env selain
'tensor'
:
Ganti isi variabel
CONDA_NAME
dengan conda env yang akan dipakai.
#!/bin...

    [Chunk 159] (1976 chars):
    ]
Apabila butuh
, isi nama modul CUDA sebagai berikut:
...
module load ${PM}
module load [Nama-modul-CUDA]
...
Perhatika...

    [Chunk 160] (1991 chars):
    # Modul NVIDIA CUDA telah tersedia di conda env tensor
module load
${
PM
}
# Mengaktifkan Conda Environment
source
activ...

    [Chunk 161] (1991 chars):
    Job ID ada pada squeue diatas.
contoh membatalkan job ID 231:
$
scancel 231
---
- Langkah Batch Job di web EFIRO -
---| ...

    [Chunk 162] (1936 chars):
    ...
Detail Submit Script lihat
[
Subm
it Script ALELEON Supercomputer
]
Untuk SBATCH notifikasi email status jalannya jo...

    [Chunk 163] (1995 chars):
    [
interactive node
].
(klik expand / kembangkan)
- Langkah Sesi Jupyter -
---| 1 |---
[
Login ke web EFIRO
]
ALELEON Sup...

    [Chunk 164] (1646 chars):
    Additional Jupyter arguments
Memuat argumen tambahan Jupyter,
isi apabila ada
.
Email address
Notifikasi email untuk sta...

    [Chunk 165] (1993 chars):
    Halaman ini membahas langkah troubleshooting dan support masalah user di ALELEON Supercomputer.
- Pilih sesuai masalah y...

    [Chunk 166] (1992 chars):
    File output program lainnya yang ada pesan error.
---
Sesi Interaktif Jupyter -
Bagi user yang pilih
Choose package to r...

    [Chunk 167] (1980 chars):
    AssocMaxWallDurationPerJobLimit
Job tidak dapat berjalan karena alokasi
limit waktu
job melebihi walltime maksimum compu...

    [Chunk 168] (1956 chars):
    SBATCH
Fair Limit
ntasks
ntasks * cpus-per-task
CPU
mem
Memory
gpus
GPU
time
Time limit
Bila
tidak ada yang lebih
:
Tida...

    [Chunk 169] (595 chars):
    User harus menambah kuota core hour.
Langkah dan ketentuan lihat
[
Ketentuan dan Transaksi Kuota Core Hour
]
`
Bila
ada
...

    [Chunk 170] (1996 chars):
    ALELEON Mk.V
adalah kelanjutan ALELEON Supercomputer Mk.III dengan platform EFIRO v2 yang sepenuhnya operasional Oktober...

    [Chunk 171] (1249 chars):
    belum dapat digunakan.
Untuk keperluan support dan bantuan hubungi admin di:
support@efisonlt.com
---
Login SSH / Akses ...

    [Chunk 172] (1863 chars):
    Halaman ini bagian dari:
[
Tutorial Menggunakan ALELEON Mk.V
]
Halaman ini memandu login pertama kali di ALELEON Superco...

    [Chunk 173] (1984 chars):
    EFIRO Account Manager
<
EAM
>
adalah portal web untuk manajemen info akun dan password user ALELEON Supercomputer
.
Hala...

    [Chunk 174] (1086 chars):
    Masukkan kode one-time code dari app authenticator.
Isi Device Name untuk identitas perangkat mobile user.
Klik
[Submit]...

    [Chunk 175] (1954 chars):
    Halaman ini adalah
pengantar
bagi user yang pertama kali mengenal dan membuat SSH Key.
Halaman ini bagian dari:
[
Login ...

    [Chunk 176] (823 chars):
    Private key
Private key adalah "password email user".
TIDAK BOLEH DIBAGIKAN KE PIHAK LUAR.
---
`
Private Key itu ...
TID...

    [Chunk 177] (1988 chars):
    Halaman ini bagian dari:
[
Daftar Software Komputasi dan Tutorial
]
ALELEON memberlakukan serangkaian aturan metrik peng...

    [Chunk 178] (1999 chars):
    Ketika
tidak ada job jalan
, Effective Core Hour Remaining =
sisa kuota Actual Core Hour.
Bila ada
job jalan
, Effective...

    [Chunk 179] (1971 chars):
    , dengan detail:
Ketika
tidak ada job jalan
:
Kebutuhan core hour job
>
sisa kuota
Actual
Core Hour
Ketika
ada job jalan...

    [Chunk 180] (797 chars):
    Software
MPI
- dapat memanfaatkan alokasi komputasi
multi-node
.
Software
non-MPI
- hanya dapat berjalan di
satu node
.
...

    [Chunk 181] (488 chars):
    Maaf, halaman ini baru saja dihapus (dalam rentang waktu 24 jam).
Log penghapusan, perlindungan, dan pemindahan halaman ...

    [Chunk 182] (1932 chars):
    Halaman ini merangkum pengenalan budaya menggunakan ALELEON Supercomputer
(dan superkomputer publik pada umumnya)
.
Hala...

    [Chunk 183] (1309 chars):
    Pada ALELEON, user nantinya akan dipandu deng
an info
[
Sausage dan Aturan Metrik Penggunaan ALELEON
]
---
Setelah konfi...

    [Chunk 184] (1970 chars):
    Halaman ini menjelaskan
konsep menjalankan komputasi
di ALELEON yaitu manajemen Slurm, batch Job, dan sesi interaktif.
M...

    [Chunk 185] (1831 chars):
    User mengisi "formulir" untuk memulai sesi interaktif.
Slurm membuka akses ke compute node untuk sesi interaktif user.
D...

    [Chunk 186] (2000 chars):
    Halaman ini ditujukan bagi
user ALELEON Mk.III (dan Mk.II)
untuk pengumuman dan teknis perpindahan akun dan data ke sist...

    [Chunk 187] (1952 chars):
    support@efisonlt.com
`
1. Backup Data Akun Mk.III
Silahkan Backup data user di akun Mk.III yang dibutuhkan dengan langka...

    [Chunk 188] (1935 chars):
    Lakukan proses download (backup) data
---
Bagi user yang hendak backup data job komputasi yang dijalankan via web EFIRO ...

    [Chunk 189] (584 chars):
    Spesifikasi besar dan limit alokasi komputasi dijelaskan di halaman
[
Sausage dan Aturan Metrik Penggunaan ALELEON
]
Men...

    [Chunk 190] (1985 chars):
    Ini adalah panduan spesifik bagi grup user
AMK
untuk menggunakan ALELEON Supercomputer.
- Daftar isi -
Login
Pengenalan ...

    [Chunk 191] (645 chars):
    .
2.
Lakukan konversi ke file Python:
$
jupytext --to py
[file-ipynb-user]
---
Contoh konversi file Notebook
wololo.ipyn...

    [Chunk 192] (1994 chars):
    ---
Jalankan:
$
pip install --user pyusb
Ketentuan instalasi package:
User tidak dapat update package bawaan environment...

    [Chunk 193] (1982 chars):
    ]
Komputasi error atau berjalan tidak semestinya -> lihat
[
Troubleshooting 2
]
.
E9.
User dapat download file output vi...

    [Chunk 194] (909 chars):
    User keluar dari sesi Jupyter.
User log out dari EFIRO Web Service.
User dapat kembali masuk ke sesi Jupyter sedang jala...

    [Chunk 195] (2000 chars):
    Halaman ini bagian dari:
[
Tutorial ALELEON Supercomputer Mk.V
]
Halaman ini memandu login SSH dan aplikasi SFTP ke ALEL...

    [Chunk 196] (1980 chars):
    [
Reg
istrasi SSH Key ALELEON
]
1.
Unduh package XQuartz di
[
xquartz.org
]
dan instal.
2.
Login SSH di terminal dengan ...

    [Chunk 197] (1088 chars):
    Pilih Login Type
Key File
Input nama username user
Browse file private key pasangan pub key terdaftar.
Klik
[Connect]
Ti...

    [Chunk 198] (1992 chars):
    [
SIESTA
]
, dikembangkan oleh MaX Centre of Excellence, adalah metode dan framework untuk kalkulasi
electronic structur...

    [Chunk 199] (1996 chars):
    [
Submit Script ALELEON
]
.
(5)
Jalankan job dengan klik
[Submit]
.
(6)
Pantau status dan output job:
Refresh halaman Jo...

    [Chunk 200] (1990 chars):
    [
Login SSH
];
atau
Login
[
EFIRO Web Service
]
, menu
Clusters > Aleleon Shell Access
.
(2)
Upload / siapkan file kompu...

    [Chunk 201] (1999 chars):
    ml load SIESTA////
# Input file
INPUT_FILE
=
"////.fdf"
# Output file
OUTPUT_FILE
=
"////"
# Perintah menjalankan SIESTA...

    [Chunk 202] (725 chars):
    Job tertahan
(state
PENDING
)
dalam waktu lama -> lihat
[
Troubleshooting 1
]
Komputasi error atau berjalan tidak semest...

    [Chunk 203] (1969 chars):
    Ini adalah panduan spesifik bagi user group ajft untuk menggunakan ALELEON Supercomputer.
- Daftar Isi -
Login dan Akun ...

    [Chunk 204] (1990 chars):
    Online Documentation:
wiki ALELEON ini.
Change HPC Password:
lihat
[
EAM - Mengganti Password
]
.
Submit Support Ticket:...

    [Chunk 205] (1978 chars):
    # Limit waktu job (HH:MM:SS atau D-HH:MM:SS)
# ex: 1 hari -> 24:00:00 atau 1-00:00:00
#SBATCH --time=////
# File output ...

    [Chunk 206] (1986 chars):
    \
-pbc nojump -center
printf
"Backbone\nBackbone\n"
|
gmx_mpi rms -s md_40.tpr
\
-f md_center_200ns.xtc -o rmsd_200ns.xv...

    [Chunk 207] (1953 chars):
    # Memuat modul software GROMACS versi GPU
module load gromacs/2025.3-gcc-13.4.0-cuda-12.9.0-pue
# Threading OMP
export
O...

    [Chunk 208] (1994 chars):
    printf
"Protein\nSystem\n"
|
gmx_mpi trjconv -s md_40.tpr
\
-f md_full_200ns.xtc -o md_center_200ns.xtc
\
-pbc nojump -c...

    [Chunk 209] (1992 chars):
    SBATCH untuk notifikasi email status job lihat
[
Slurm Jojo
]
Info lengkap submit script lihat
[
Submit Script ALELEON
]...

    [Chunk 210] (1977 chars):
    Tutorial ini mengasumsikan user dapat menggunakan CLI.
1
Akses / buka terminal ALELEON dengan opsi:
[
Login SSH
];
atau
...

    [Chunk 211] (1629 chars):
    dan tutup
Hanya untuk mengaktifkan pembacaan utilisasi cgroup.
Buka menu
Jobs > Active Jobs
Bila belum, ganti mode
All J...

    [Chunk 212] (1969 chars):
    TRIAL
Pilihan Menjalankan Komputasi
Berikut opsi yang dapat dipilih sesuai kebutuhan dan preferensi user:
Pengenalan pil...

    [Chunk 213] (1979 chars):
    sausage
: Konsumsi Core Hour
- Menu
sfair
: Konsumsi alokasi komputasi
dan sisa limit LFU
- Utilisasi CPU dan Memori job...

    [Chunk 214] (1987 chars):
    [
sausage
]
:
$
sausage
Pilih menu
slimit
, job type
Batch Job
menghitung rentang SBATCH
CPU, memori, GPU, dan time
Info...

    [Chunk 215] (674 chars):
    $ scancel
[job-ID]
Job ID ada pada squeue diatas.
contoh membatalkan job ID 231:
$
scancel 231
CG (COMPLETING)
- job sel...

    [Chunk 216] (203 chars):
    Saat ini tidak ada teks di halaman ini.
Anda dapat
melakukan pencarian untuk judul halaman ini
di halaman-halaman lain, ...

    [Chunk 217] (1340 chars):
    Halaman ini bagian dari:
[
Daftar Software Komputasi dan Tutorial
]
Halaman ini ditujukan bagi
user yang membawa dan / a...

    [Chunk 218] (1991 chars):
    [
Phono3py
]
adalah package Python untuk kalkulasi
lattice thermal conductivity
suatu material. Phono3py bekerja beririn...

    [Chunk 219] (987 chars):
    Bila lebih gunakan
[
Aplikasi SFTP
]
- arahkan ke direktori Job Composer.
.
E5.
Pada Python, batch job menjalankan file ...

    [Chunk 220] (1959 chars):
    ---
Jalankan:
$
pip install --user pyusb
Ketentuan instalasi package:
User tidak dapat update package bawaan environment...

    [Chunk 221] (1766 chars):
    [Submit]
Failed
- job berhenti karena error atau distop user.
Bila user merasa job gagal berjalan:
Job tertahan
(status ...

    [Chunk 222] (1997 chars):
    ---
Jalankan:
$
pip install --user pyusb
Ketentuan instalasi package:
User tidak dapat update package bawaan environment...

    [Chunk 223] (1995 chars):
    # Lihat Perintah Aktivasi pyload subbab 1
pyload ////
# Input perintah komputasi user
////
# Deaktivasi environment untu...

    [Chunk 224] (1974 chars):
    ]
.
T7.
Untuk download file output, gunakan opsi:
[
Aplikasi SFTP
]
Melalui
[
EWS
],
menu
Files > Home Directory
*
2C. S...

    [Chunk 225] (878 chars):
    User log out dari EFIRO Web Service.
User dapat kembali masuk ke sesi Jupyter sedang jalan via:
menu
My Interactive Sess...

    [Chunk 226] (1991 chars):
    Halaman ini bagian dari:
[
Tutorial ALELEON Supercomputer Mk.V
]
[
Login SSH dan SFTP ALELEON Supercomputer
]
Halaman in...

    [Chunk 227] (1969 chars):
    - Tambahan info -
SSH key tersimpan di direktori
$HOME/.ssh
user
Proses no.1 membuat SSH key:
Private key:
Bila Ed25519 ...

    [Chunk 228] (1574 chars):
    User login: olala001
  First name: Micin
  Last name: Gondes
  Home directory: /share/work_r640/olala001
  Login shell: ...

    [Chunk 229] (1997 chars):
    [
BoltzTraP2
]
adalah implementasi modern berbasis package Python untuk
smoothed Fourier interpolation algorithm
berdasa...

    [Chunk 230] (1618 chars):
    #    ${QE_BIN} -input ${INPUT_FILE}
# Perintah aktivasi payload BoltzTraP2, contoh versi 25.3.1
# Versi lain (bila ada) ...

    [Chunk 231] (1959 chars):
    ---
Jalankan:
$
pip install --user pyusb
Ketentuan instalasi package:
User tidak dapat update package bawaan environment...

    [Chunk 232] (1768 chars):
    [Submit]
Failed
- job berhenti karena error atau distop user.
Bila user merasa job gagal berjalan:
Job tertahan
(status ...

    [Chunk 233] (1997 chars):
    ---
Jalankan:
$
pip install --user pyusb
Ketentuan instalasi package:
User tidak dapat update package bawaan environment...

    [Chunk 234] (1995 chars):
    # Lihat Perintah Aktivasi pyload subbab 1
pyload ////
# Input perintah komputasi user
////
# Deaktivasi environment untu...

    [Chunk 235] (1976 chars):
    ]
.
T7.
Untuk download file output, gunakan opsi:
[
Aplikasi SFTP
]
Melalui
[
EWS
],
menu
Files > Home Directory
*
2D. S...

    [Chunk 236] (878 chars):
    User log out dari EFIRO Web Service.
User dapat kembali masuk ke sesi Jupyter sedang jalan via:
menu
My Interactive Sess...

    [Chunk 237] (203 chars):
    Saat ini tidak ada teks di halaman ini.
Anda dapat
melakukan pencarian untuk judul halaman ini
di halaman-halaman lain, ...

    [Chunk 238] (1969 chars):
    [
ACYPE
]
(AnteChamber PYthon Parser InterfacE) adalah package Python berbasis software Antechamber untuk menghasilkan t...

    [Chunk 239] (1142 chars):
    (bebas)
dan klik
[Create New Job]
.
E4.
Siapkan file komputasi via
[Edit Files]
Dapat upload / download / manajemen / ed...

    [Chunk 240] (1959 chars):
    ---
Jalankan:
$
pip install --user pyusb
Ketentuan instalasi package:
User tidak dapat update package bawaan environment...

    [Chunk 241] (1764 chars):
    [Submit]
Failed
- job berhenti karena error atau distop user.
Bila user merasa job gagal berjalan:
Job tertahan
(status ...

    [Chunk 242] (1997 chars):
    ---
Jalankan:
$
pip install --user pyusb
Ketentuan instalasi package:
User tidak dapat update package bawaan environment...

    [Chunk 243] (1995 chars):
    # Lihat Perintah Aktivasi pyload subbab 1
pyload ////
# Input perintah komputasi user
////
# Deaktivasi environment untu...

    [Chunk 244] (1972 chars):
    ]
.
T7.
Untuk download file output, gunakan opsi:
[
Aplikasi SFTP
]
Melalui
[
EWS
],
menu
Files > Home Directory
*
2C. S...

    [Chunk 245] (878 chars):
    User log out dari EFIRO Web Service.
User dapat kembali masuk ke sesi Jupyter sedang jalan via:
menu
My Interactive Sess...

    [Chunk 246] (1995 chars):
    [
gmx_MMPBSA
]
adalah package Python berbasis MMPBSA.py dari AMBER untuk kalkulasi end-state free energy dengan file GRO...

    [Chunk 247] (736 chars):
    .
2.
Lakukan konversi ke file Python:
$
jupytext --to py
[file-ipynb-user]
---
Contoh konversi file Notebook
wololo.ipyn...

    [Chunk 248] (1959 chars):
    ---
Jalankan:
$
pip install --user pyusb
Ketentuan instalasi package:
User tidak dapat update package bawaan environment...

    [Chunk 249] (1768 chars):
    [Submit]
Failed
- job berhenti karena error atau distop user.
Bila user merasa job gagal berjalan:
Job tertahan
(status ...

    [Chunk 250] (1997 chars):
    ---
Jalankan:
$
pip install --user pyusb
Ketentuan instalasi package:
User tidak dapat update package bawaan environment...

    [Chunk 251] (1992 chars):
    # Lihat Perintah Aktivasi pyload subbab 1
pyload ////
# Input perintah komputasi user
# Bila menggunakan MPI (mpirun), g...

    [Chunk 252] (1992 chars):
    [
Troubleshooting 1
]
Komputasi error atau berjalan tidak semestinya -> lihat
[
Troubleshooting 2
]
.
T7.
Untuk download...

    [Chunk 253] (967 chars):
    Termasuk ketika:
Koneksi user terputus saat sesi Jupyter.
User keluar dari sesi Jupyter.
User log out dari EFIRO Web Ser...

    [Chunk 254] (488 chars):
    Maaf, halaman ini baru saja dihapus (dalam rentang waktu 24 jam).
Log penghapusan, perlindungan, dan pemindahan halaman ...

    [Chunk 255] (1998 chars):
    Update 12 Januari 2026
1. Daftar Instalasi Package AI
Instalasi global per tanggal 12 Januari 2026:
Nama
Perintah Aktiva...

    [Chunk 256] (544 chars):
    $
jupytext --to py
wololo.ipynb
akan menghasilkan file Python
wololo.py
Apakah kebutuhan package Python lengkap? -
1.
Bu...

    [Chunk 257] (1979 chars):
    ---
Jalankan:
$
pip install --user pyusb
Ketentuan instalasi package:
User tidak dapat update package bawaan environment...

    [Chunk 258] (1642 chars):
    Isi waktu maksimal sesi Jupyter
Amount of memory/RAM (GB)
Jumlah memori RAM dalam GB
Use GPU for the job
no
-> tanpa GPU...

    [Chunk 259] (203 chars):
    Saat ini tidak ada teks di halaman ini.
Anda dapat
melakukan pencarian untuk judul halaman ini
di halaman-halaman lain, ...
[3] Load model embedding lokal...
[4] Menyimpan vektor ke database Chroma...
Failed to send telemetry event ClientStartEvent: capture() takes 1 positional argument but 3 were given
Failed to send telemetry event ClientCreateCollectionEvent: capture() takes 1 positional argument but 3 were given

[5] Memuat model Qwen ke GPU menggunakan vLLM...
    (Ini akan memakan waktu untuk alokasi KV Cache di VRAM)
INFO 03-05 11:06:22 [utils.py:229] non-default args: {'trust_remote_code': True, 'max_model_len': 32768, 'gpu_memory_utilization': 0.8, 'disable_log_stats': True, 'enforce_eager': True, 'model': 'Qwen/Qwen2.5-Coder-7B-Instruct'}
The argument `trust_remote_code` is to be used with Auto classes. It has no effect here and is ignored.
The argument `trust_remote_code` is to be used with Auto classes. It has no effect here and is ignored.
WARNING 03-05 11:06:28 [gpt_oss_triton_kernels_moe.py:55] Using legacy triton_kernels on ROCm
INFO 03-05 11:06:28 [model.py:532] Resolved architecture: Qwen2ForCausalLM
INFO 03-05 11:06:28 [model.py:1556] Using max model len 32768
INFO 03-05 11:06:28 [scheduler.py:231] Chunked prefill is enabled with max_num_batched_tokens=8192.
INFO 03-05 11:06:28 [vllm.py:697] Asynchronous scheduling is enabled.
WARNING 03-05 11:06:28 [vllm.py:731] Enforce eager set, disabling torch.compile and CUDAGraphs. This is equivalent to setting -cc.mode=none -cc.cudagraph_mode=none
WARNING 03-05 11:06:28 [vllm.py:742] Inductor compilation was disabled by user settings, optimizations settings that are only active during inductor compilation will be ignored.
INFO 03-05 11:06:28 [vllm.py:855] Cudagraph is disabled under eager mode
WARNING 03-05 11:06:29 [system_utils.py:140] We must use the `spawn` multiprocessing start method. Overriding VLLM_WORKER_MULTIPROC_METHOD to 'spawn'. See https://docs.vllm.ai/en/latest/usage/troubleshooting.html#python-multiprocessing for more information. Reasons: CUDA is initialized
(EngineCore_DP0 pid=158) INFO 03-05 11:06:32 [core.py:98] Initializing a V1 LLM engine (v0.16.0rc2.dev409+g596ed1f02) with config: model='Qwen/Qwen2.5-Coder-7B-Instruct', speculative_config=None, tokenizer='Qwen/Qwen2.5-Coder-7B-Instruct', skip_tokenizer_init=False, tokenizer_mode=auto, revision=None, tokenizer_revision=None, trust_remote_code=True, dtype=torch.bfloat16, max_seq_len=32768, download_dir=None, load_format=auto, tensor_parallel_size=1, pipeline_parallel_size=1, data_parallel_size=1, disable_custom_all_reduce=True, quantization=None, enforce_eager=True, enable_return_routed_experts=False, kv_cache_dtype=auto, device_config=cuda, structured_outputs_config=StructuredOutputsConfig(backend='auto', disable_fallback=False, disable_any_whitespace=False, disable_additional_properties=False, reasoning_parser='', reasoning_parser_plugin='', enable_in_reasoning=False), observability_config=ObservabilityConfig(show_hidden_metrics_for_version=None, otlp_traces_endpoint=None, collect_detailed_traces=None, kv_cache_metrics=False, kv_cache_metrics_sample=0.01, cudagraph_metrics=False, enable_layerwise_nvtx_tracing=False, enable_mfu_metrics=False, enable_mm_processor_stats=False, enable_logging_iteration_details=False), seed=0, served_model_name=Qwen/Qwen2.5-Coder-7B-Instruct, enable_prefix_caching=True, enable_chunked_prefill=True, pooler_config=None, compilation_config={'level': None, 'mode': <CompilationMode.NONE: 0>, 'debug_dump_path': None, 'cache_dir': '', 'compile_cache_save_format': 'binary', 'backend': 'inductor', 'custom_ops': ['all', '+sparse_attn_indexer'], 'splitting_ops': [], 'compile_mm_encoder': False, 'compile_sizes': [], 'compile_ranges_split_points': [8192], 'inductor_compile_config': {'enable_auto_functionalized_v2': False, 'combo_kernels': True, 'benchmark_combo_kernel': True}, 'inductor_passes': {}, 'cudagraph_mode': <CUDAGraphMode.NONE: 0>, 'cudagraph_num_of_warmups': 0, 'cudagraph_capture_sizes': [], 'cudagraph_copy_inputs': False, 'cudagraph_specialize_lora': True, 'use_inductor_graph_partition': False, 'pass_config': {'fuse_norm_quant': True, 'fuse_act_quant': True, 'fuse_attn_quant': False, 'enable_sp': False, 'fuse_gemm_comms': False, 'fuse_allreduce_rms': False, 'fuse_act_padding': False}, 'max_cudagraph_capture_size': 0, 'dynamic_shapes_config': {'type': <DynamicShapesType.BACKED: 'backed'>, 'evaluate_guards': False, 'assume_32_bit_indexing': False}, 'local_cache_dir': None, 'fast_moe_cold_start': True, 'static_all_moe_layers': []}
(EngineCore_DP0 pid=158) WARNING 03-05 11:06:33 [gpt_oss_triton_kernels_moe.py:55] Using legacy triton_kernels on ROCm
(EngineCore_DP0 pid=158) INFO 03-05 11:06:33 [parallel_state.py:1307] world_size=1 rank=0 local_rank=0 distributed_init_method=tcp://172.16.1.36:47831 backend=nccl
(EngineCore_DP0 pid=158) INFO 03-05 11:06:33 [parallel_state.py:1535] rank 0 in world size 1 is assigned as DP rank 0, PP rank 0, PCP rank 0, TP rank 0, EP rank N/A, EPLB rank N/A
(EngineCore_DP0 pid=158) INFO 03-05 11:06:33 [gpu_model_runner.py:4139] Starting to load model Qwen/Qwen2.5-Coder-7B-Instruct...
(EngineCore_DP0 pid=158) INFO 03-05 11:06:34 [rocm.py:372] Using Triton Attention backend.
(EngineCore_DP0 pid=158) WARNING 03-05 11:06:34 [compilation.py:1095] Op 'sparse_attn_indexer' not present in model, enabling with '+sparse_attn_indexer' has no effect
(EngineCore_DP0 pid=158) Loading safetensors checkpoint shards:   0% Completed | 0/4 [00:00<?, ?it/s]
(EngineCore_DP0 pid=158) Loading safetensors checkpoint shards:  25% Completed | 1/4 [00:00<00:02,  1.21it/s]
(EngineCore_DP0 pid=158) Loading safetensors checkpoint shards:  50% Completed | 2/4 [00:01<00:01,  1.24it/s]
(EngineCore_DP0 pid=158) Loading safetensors checkpoint shards:  75% Completed | 3/4 [00:02<00:00,  1.36it/s]
(EngineCore_DP0 pid=158) Loading safetensors checkpoint shards: 100% Completed | 4/4 [00:02<00:00,  1.84it/s]
(EngineCore_DP0 pid=158) Loading safetensors checkpoint shards: 100% Completed | 4/4 [00:02<00:00,  1.59it/s]
(EngineCore_DP0 pid=158) 
(EngineCore_DP0 pid=158) INFO 03-05 11:06:38 [default_loader.py:293] Loading weights took 2.54 seconds
(EngineCore_DP0 pid=158) INFO 03-05 11:06:38 [gpu_model_runner.py:4236] Model loading took 14.35 GiB memory and 4.498471 seconds
(EngineCore_DP0 pid=158) INFO 03-05 11:06:43 [gpu_worker.py:405] Available KV cache memory: 9.58 GiB
(EngineCore_DP0 pid=158) INFO 03-05 11:06:43 [kv_cache_utils.py:1314] GPU KV cache size: 179,360 tokens
(EngineCore_DP0 pid=158) INFO 03-05 11:06:43 [kv_cache_utils.py:1319] Maximum concurrency for 32,768 tokens per request: 5.47x
(EngineCore_DP0 pid=158) INFO 03-05 11:06:43 [core.py:278] init engine (profile, create kv cache, warmup model) took 5.24 seconds
(EngineCore_DP0 pid=158) INFO 03-05 11:06:45 [vllm.py:697] Asynchronous scheduling is enabled.
(EngineCore_DP0 pid=158) WARNING 03-05 11:06:45 [vllm.py:731] Enforce eager set, disabling torch.compile and CUDAGraphs. This is equivalent to setting -cc.mode=none -cc.cudagraph_mode=none
(EngineCore_DP0 pid=158) WARNING 03-05 11:06:45 [vllm.py:742] Inductor compilation was disabled by user settings, optimizations settings that are only active during inductor compilation will be ignored.
(EngineCore_DP0 pid=158) INFO 03-05 11:06:45 [vllm.py:855] Cudagraph is disabled under eager mode
INFO 03-05 11:06:45 [llm.py:361] Supported tasks: ['generate']

============================================================
[Q1/197] Apa itu ALELEON Supercomputer?
------------------------------------------------------------
[2026-03-05 11:06:45] ERROR posthog.py:61: Failed to send telemetry event CollectionQueryEvent: capture() takes 1 positional argument but 3 were given
Rendering prompts:   0%|          | 0/1 [00:00<?, ?it/s]Rendering prompts: 100%|██████████| 1/1 [00:00<00:00, 111.16it/s]
Processed prompts:   0%|          | 0/1 [00:00<?, ?it/s, est. speed input: 0.00 toks/s, output: 0.00 toks/s]Processed prompts: 100%|██████████| 1/1 [00:02<00:00,  2.08s/it, est. speed input: 1564.25 toks/s, output: 18.23 toks/s]Processed prompts: 100%|██████████| 1/1 [00:02<00:00,  2.08s/it, est. speed input: 1564.25 toks/s, output: 18.23 toks/s]Processed prompts: 100%|██████████| 1/1 [00:02<00:00,  2.08s/it, est. speed input: 1564.25 toks/s, output: 18.23 toks/s]
ALELEON Supercomputer adalah layanan superkomputer publik pertama dari EFISON yang dirancang untuk komputasi saintifik, machine learning, dan big data.

    📚 Sumber (5 chunks):
    • ALELEON Supercomputer  (https://wiki.efisonlt.com/wiki/ALELEON_Supercomputer)
    • Spesifikasi ALELEON Supercomputer  (https://wiki.efisonlt.com/wiki/Spesifikasi_ALELEON_Supercomputer)
    • Pengenalan Menggunakan ALELEON Supercomputer  (https://wiki.efisonlt.com/wiki/Pengenalan_Menggunakan_ALELEON_Supercomputer)
    • Pendaftaran dan Biaya ALELEON Supercomputer  (https://wiki.efisonlt.com/wiki/Pendaftaran_dan_Biaya_ALELEON_Supercomputer)
    • Tutorial Menggunakan ALELEON Supercomputer Mk.V  (https://wiki.efisonlt.com/wiki/Tutorial_Menggunakan_ALELEON_Supercomputer_Mk.V)

============================================================
[Q2/197] Apa email support admin ALELEON?
------------------------------------------------------------
Rendering prompts:   0%|          | 0/1 [00:00<?, ?it/s]Rendering prompts: 100%|██████████| 1/1 [00:00<00:00, 371.93it/s]
Processed prompts:   0%|          | 0/1 [00:00<?, ?it/s, est. speed input: 0.00 toks/s, output: 0.00 toks/s]Processed prompts: 100%|██████████| 1/1 [00:00<00:00,  2.04it/s, est. speed input: 5365.36 toks/s, output: 14.31 toks/s]Processed prompts: 100%|██████████| 1/1 [00:00<00:00,  2.04it/s, est. speed input: 5365.36 toks/s, output: 14.31 toks/s]Processed prompts: 100%|██████████| 1/1 [00:00<00:00,  2.04it/s, est. speed input: 5365.36 toks/s, output: 14.31 toks/s]
support@efisonlt.com

    📚 Sumber (5 chunks):
    • ALELEON Supercomputer  (https://wiki.efisonlt.com/wiki/ALELEON_Supercomputer)
    • Tutorial Menggunakan ALELEON Supercomputer Mk.V  (https://wiki.efisonlt.com/wiki/Tutorial_Menggunakan_ALELEON_Supercomputer_Mk.V)
    • EFIRO Account Manager  (https://wiki.efisonlt.com/wiki/EFIRO_Account_Manager)
    • Pendaftaran dan Biaya ALELEON Supercomputer  (https://wiki.efisonlt.com/wiki/Pendaftaran_dan_Biaya_ALELEON_Supercomputer)

============================================================
[Q3/197] Jam kerja support EFISON kapan?
------------------------------------------------------------
Rendering prompts:   0%|          | 0/1 [00:00<?, ?it/s]Rendering prompts: 100%|██████████| 1/1 [00:00<00:00, 767.06it/s]
Processed prompts:   0%|          | 0/1 [00:00<?, ?it/s, est. speed input: 0.00 toks/s, output: 0.00 toks/s]Processed prompts: 100%|██████████| 1/1 [00:03<00:00,  3.22s/it, est. speed input: 552.15 toks/s, output: 30.73 toks/s]Processed prompts: 100%|██████████| 1/1 [00:03<00:00,  3.22s/it, est. speed input: 552.15 toks/s, output: 30.73 toks/s]Processed prompts: 100%|██████████| 1/1 [00:03<00:00,  3.22s/it, est. speed input: 552.15 toks/s, output: 30.73 toks/s]
Tim admin EFISON dapat memberikan respon cepat pada hari kerja (Senin - Jumat) antara jam 09.00 - 17.30 WIB. Selama hari libur (Sabtu - Minggu) dan libur nasional serta cuti bersama Pemerintah Indonesia, tim admin dapat membalas tiket dan email support, namun dengan waktu respon yang tidak secepat ketika hari kerja.

    📚 Sumber (5 chunks):
    • Komputasi Python dengan Conda Environment User  (https://wiki.efisonlt.com/wiki/Komputasi_Python_dengan_Conda_Environment_User)
    • SIESTA  (https://wiki.efisonlt.com/wiki/SIESTA)
    • PHASE/0  (https://wiki.efisonlt.com/wiki/PHASE/0)
    • GMX-MMPBSA  (https://wiki.efisonlt.com/wiki/GMX-MMPBSA)
    • Phono3py dan Phonopy  (https://wiki.efisonlt.com/wiki/Phono3py_dan_Phonopy)

============================================================
[Q4/197] ALELEON Mk.V menggunakan platform apa?
------------------------------------------------------------
Rendering prompts:   0%|          | 0/1 [00:00<?, ?it/s]Rendering prompts: 100%|██████████| 1/1 [00:00<00:00, 418.89it/s]
Processed prompts:   0%|          | 0/1 [00:00<?, ?it/s, est. speed input: 0.00 toks/s, output: 0.00 toks/s]Processed prompts: 100%|██████████| 1/1 [00:01<00:00,  1.12s/it, est. speed input: 2696.41 toks/s, output: 21.34 toks/s]Processed prompts: 100%|██████████| 1/1 [00:01<00:00,  1.12s/it, est. speed input: 2696.41 toks/s, output: 21.34 toks/s]Processed prompts: 100%|██████████| 1/1 [00:01<00:00,  1.13s/it, est. speed input: 2696.41 toks/s, output: 21.34 toks/s]
ALELEON Mk.V menggunakan platform Linux Xfce di EFIRO Web Service untuk ALELEON Desktop.

    📚 Sumber (5 chunks):
    • Migrasi Akun dan Data Mk.III ke Mk.V  (https://wiki.efisonlt.com/wiki/Migrasi_Akun_dan_Data_Mk.III_ke_Mk.V)
    • Daftar Software Komputasi dan Tutorial Penggunaan  (https://wiki.efisonlt.com/wiki/Daftar_Software_Komputasi_dan_Tutorial_Penggunaan)
    • ALELEON Supercomputer  (https://wiki.efisonlt.com/wiki/ALELEON_Supercomputer)
    • SW-GXN  (https://wiki.efisonlt.com/wiki/SW-GXN)

============================================================
[Q5/197] Sistem operasi apa yang digunakan ALELEON?
------------------------------------------------------------
Rendering prompts:   0%|          | 0/1 [00:00<?, ?it/s]Rendering prompts: 100%|██████████| 1/1 [00:00<00:00, 292.37it/s]
Processed prompts:   0%|          | 0/1 [00:00<?, ?it/s, est. speed input: 0.00 toks/s, output: 0.00 toks/s]Processed prompts: 100%|██████████| 1/1 [00:01<00:00,  1.80s/it, est. speed input: 1743.59 toks/s, output: 25.60 toks/s]Processed prompts: 100%|██████████| 1/1 [00:01<00:00,  1.80s/it, est. speed input: 1743.59 toks/s, output: 25.60 toks/s]Processed prompts: 100%|██████████| 1/1 [00:01<00:00,  1.80s/it, est. speed input: 1743.59 toks/s, output: 25.60 toks/s]
Sistem operasi yang digunakan ALELEON adalah Rocky Linux 8 (Red-hat based) dengan kernel 5.4.266-1.el8.elrepo.x86_64.

    📚 Sumber (5 chunks):
    • ALELEON Supercomputer  (https://wiki.efisonlt.com/wiki/ALELEON_Supercomputer)
    • Pengenalan Menggunakan ALELEON Supercomputer  (https://wiki.efisonlt.com/wiki/Pengenalan_Menggunakan_ALELEON_Supercomputer)
    • Tutorial Menggunakan ALELEON Supercomputer Mk.V  (https://wiki.efisonlt.com/wiki/Tutorial_Menggunakan_ALELEON_Supercomputer_Mk.V)
    • Spesifikasi ALELEON Supercomputer  (https://wiki.efisonlt.com/wiki/Spesifikasi_ALELEON_Supercomputer)
    • Daftar Software Komputasi dan Tutorial Penggunaan  (https://wiki.efisonlt.com/wiki/Daftar_Software_Komputasi_dan_Tutorial_Penggunaan)

============================================================
[Q6/197] Versi Slurm yang digunakan ALELEON berapa?
------------------------------------------------------------
Rendering prompts:   0%|          | 0/1 [00:00<?, ?it/s]Rendering prompts: 100%|██████████| 1/1 [00:00<00:00, 394.72it/s]
Processed prompts:   0%|          | 0/1 [00:00<?, ?it/s, est. speed input: 0.00 toks/s, output: 0.00 toks/s]Processed prompts: 100%|██████████| 1/1 [00:01<00:00,  1.05s/it, est. speed input: 3130.06 toks/s, output: 19.10 toks/s]Processed prompts: 100%|██████████| 1/1 [00:01<00:00,  1.05s/it, est. speed input: 3130.06 toks/s, output: 19.10 toks/s]Processed prompts: 100%|██████████| 1/1 [00:01<00:00,  1.05s/it, est. speed input: 3130.06 toks/s, output: 19.10 toks/s]
Slurm yang digunakan ALELEON adalah versi 20.02.

    📚 Sumber (5 chunks):
    • Metode Komputasi di ALELEON  (https://wiki.efisonlt.com/wiki/Metode_Komputasi_di_ALELEON)
    • Pengenalan Menggunakan ALELEON Supercomputer  (https://wiki.efisonlt.com/wiki/Pengenalan_Menggunakan_ALELEON_Supercomputer)
    • CP2K  (https://wiki.efisonlt.com/wiki/CP2K)

============================================================
[Q7/197] Apa nama portal web untuk menggunakan ALELEON?
------------------------------------------------------------
Rendering prompts:   0%|          | 0/1 [00:00<?, ?it/s]Rendering prompts: 100%|██████████| 1/1 [00:00<00:00, 452.31it/s]
Processed prompts:   0%|          | 0/1 [00:00<?, ?it/s, est. speed input: 0.00 toks/s, output: 0.00 toks/s]Processed prompts: 100%|██████████| 1/1 [00:00<00:00,  1.19it/s, est. speed input: 3792.94 toks/s, output: 17.91 toks/s]Processed prompts: 100%|██████████| 1/1 [00:00<00:00,  1.19it/s, est. speed input: 3792.94 toks/s, output: 17.91 toks/s]Processed prompts: 100%|██████████| 1/1 [00:00<00:00,  1.19it/s, est. speed input: 3792.94 toks/s, output: 17.91 toks/s]
Portal web untuk menggunakan ALELEON adalah EFIRO Account Manager.

    📚 Sumber (5 chunks):
    • ALELEON Supercomputer  (https://wiki.efisonlt.com/wiki/ALELEON_Supercomputer)
    • SW-GXN  (https://wiki.efisonlt.com/wiki/SW-GXN)
    • SW-AJFT  (https://wiki.efisonlt.com/wiki/SW-AJFT)
    • Tutorial Menggunakan ALELEON Supercomputer Mk.V  (https://wiki.efisonlt.com/wiki/Tutorial_Menggunakan_ALELEON_Supercomputer_Mk.V)
    • Pendaftaran dan Biaya ALELEON Supercomputer  (https://wiki.efisonlt.com/wiki/Pendaftaran_dan_Biaya_ALELEON_Supercomputer)

============================================================
[Q8/197] Apa URL untuk login ke EFIRO Web Service?
------------------------------------------------------------
Rendering prompts:   0%|          | 0/1 [00:00<?, ?it/s]Rendering prompts: 100%|██████████| 1/1 [00:00<00:00, 576.30it/s]
Processed prompts:   0%|          | 0/1 [00:00<?, ?it/s, est. speed input: 0.00 toks/s, output: 0.00 toks/s]Processed prompts: 100%|██████████| 1/1 [00:00<00:00,  1.07it/s, est. speed input: 2314.62 toks/s, output: 24.61 toks/s]Processed prompts: 100%|██████████| 1/1 [00:00<00:00,  1.07it/s, est. speed input: 2314.62 toks/s, output: 24.61 toks/s]Processed prompts: 100%|██████████| 1/1 [00:00<00:00,  1.07it/s, est. speed input: 2314.62 toks/s, output: 24.61 toks/s]
URL untuk login ke EFIRO Web Service adalah:
     ```
     aleleonsuper.computer
     ```

    📚 Sumber (5 chunks):
    • Phono3py dan Phonopy  (https://wiki.efisonlt.com/wiki/Phono3py_dan_Phonopy)
    • BoltzTraP2  (https://wiki.efisonlt.com/wiki/BoltzTraP2)
    • ACPYPE  (https://wiki.efisonlt.com/wiki/ACPYPE)
    • SW-AMK  (https://wiki.efisonlt.com/wiki/SW-AMK)
    • EFIRO Account Manager  (https://wiki.efisonlt.com/wiki/EFIRO_Account_Manager)

============================================================
[Q9/197] Apa itu EFIRO Account Manager?
------------------------------------------------------------
Rendering prompts:   0%|          | 0/1 [00:00<?, ?it/s]Rendering prompts: 100%|██████████| 1/1 [00:00<00:00, 537.87it/s]
Processed prompts:   0%|          | 0/1 [00:00<?, ?it/s, est. speed input: 0.00 toks/s, output: 0.00 toks/s]Processed prompts: 100%|██████████| 1/1 [00:01<00:00,  1.09s/it, est. speed input: 2333.68 toks/s, output: 23.82 toks/s]Processed prompts: 100%|██████████| 1/1 [00:01<00:00,  1.09s/it, est. speed input: 2333.68 toks/s, output: 23.82 toks/s]Processed prompts: 100%|██████████| 1/1 [00:01<00:00,  1.09s/it, est. speed input: 2333.68 toks/s, output: 23.82 toks/s]
EFIRO Account Manager adalah portal web untuk manajemen informasi akun dan password user ALELEON Supercomputer.

    📚 Sumber (5 chunks):
    • EFIRO Account Manager  (https://wiki.efisonlt.com/wiki/EFIRO_Account_Manager)
    • Tutorial Menggunakan ALELEON Supercomputer Mk.V  (https://wiki.efisonlt.com/wiki/Tutorial_Menggunakan_ALELEON_Supercomputer_Mk.V)
    • PHASE/0  (https://wiki.efisonlt.com/wiki/PHASE/0)
    • SIESTA  (https://wiki.efisonlt.com/wiki/SIESTA)

============================================================
[Q10/197] Bagaimana cara mengganti password akun ALELEON?
------------------------------------------------------------
Rendering prompts:   0%|          | 0/1 [00:00<?, ?it/s]Rendering prompts: 100%|██████████| 1/1 [00:00<00:00, 417.43it/s]
Processed prompts:   0%|          | 0/1 [00:00<?, ?it/s, est. speed input: 0.00 toks/s, output: 0.00 toks/s]Processed prompts: 100%|██████████| 1/1 [00:04<00:00,  4.03s/it, est. speed input: 744.95 toks/s, output: 29.28 toks/s]Processed prompts: 100%|██████████| 1/1 [00:04<00:00,  4.03s/it, est. speed input: 744.95 toks/s, output: 29.28 toks/s]Processed prompts: 100%|██████████| 1/1 [00:04<00:00,  4.03s/it, est. speed input: 744.95 toks/s, output: 29.28 toks/s]
Untuk mengganti password akun ALELEON, ikuti langkah-langkah berikut:

     1. Buka web EFIRO Account Manager di [https://login.efisonlt.com].
     2. Login dengan username dan password user.
     3. Klik menu "Account security > Signing In".
     4. Klik "Update" pada bagian Password.
     5. Buat password baru dan klik "Submit".

     Dengan langkah-langkah tersebut, Anda dapat mengganti password akun ALELEON.

    📚 Sumber (5 chunks):
    • Koneksi VPN ALELEON Supercomputer  (https://wiki.efisonlt.com/wiki/Koneksi_VPN_ALELEON_Supercomputer)
    • Tutorial Menggunakan ALELEON Supercomputer Mk.V  (https://wiki.efisonlt.com/wiki/Tutorial_Menggunakan_ALELEON_Supercomputer_Mk.V)
    • EFIRO Account Manager  (https://wiki.efisonlt.com/wiki/EFIRO_Account_Manager)
    • Login Pertama ALELEON Supercomputer  (https://wiki.efisonlt.com/wiki/Login_Pertama_ALELEON_Supercomputer)
    • Login SSH dan SFTP ALELEON Supercomputer  (https://wiki.efisonlt.com/wiki/Login_SSH_dan_SFTP_ALELEON_Supercomputer)

============================================================
[Q11/197] Berapa jumlah node di partisi epyc?
------------------------------------------------------------
Rendering prompts:   0%|          | 0/1 [00:00<?, ?it/s]Rendering prompts: 100%|██████████| 1/1 [00:00<00:00, 342.92it/s]
Processed prompts:   0%|          | 0/1 [00:00<?, ?it/s, est. speed input: 0.00 toks/s, output: 0.00 toks/s]Processed prompts: 100%|██████████| 1/1 [00:00<00:00,  1.05it/s, est. speed input: 3900.38 toks/s, output: 14.76 toks/s]Processed prompts: 100%|██████████| 1/1 [00:00<00:00,  1.05it/s, est. speed input: 3900.38 toks/s, output: 14.76 toks/s]Processed prompts: 100%|██████████| 1/1 [00:00<00:00,  1.05it/s, est. speed input: 3900.38 toks/s, output: 14.76 toks/s]
Jumlah node di partisi epyc adalah 2.

    📚 Sumber (5 chunks):
    • MPI ALELEON Supercomputer  (https://wiki.efisonlt.com/wiki/MPI_ALELEON_Supercomputer)
    • Spesifikasi ALELEON Supercomputer  (https://wiki.efisonlt.com/wiki/Spesifikasi_ALELEON_Supercomputer)
    • TRIAL A6  (https://wiki.efisonlt.com/wiki/TRIAL_A6)
    • Submit Script ALELEON Supercomputer  (https://wiki.efisonlt.com/wiki/Submit_Script_ALELEON_Supercomputer)

============================================================
[Q12/197] CPU apa yang digunakan di partisi epyc?
------------------------------------------------------------
Rendering prompts:   0%|          | 0/1 [00:00<?, ?it/s]Rendering prompts: 100%|██████████| 1/1 [00:00<00:00, 413.56it/s]
Processed prompts:   0%|          | 0/1 [00:00<?, ?it/s, est. speed input: 0.00 toks/s, output: 0.00 toks/s]Processed prompts: 100%|██████████| 1/1 [00:01<00:00,  1.76s/it, est. speed input: 2101.79 toks/s, output: 22.72 toks/s]Processed prompts: 100%|██████████| 1/1 [00:01<00:00,  1.76s/it, est. speed input: 2101.79 toks/s, output: 22.72 toks/s]Processed prompts: 100%|██████████| 1/1 [00:01<00:00,  1.76s/it, est. speed input: 2101.79 toks/s, output: 22.72 toks/s]
Partisi epyc menggunakan CPU AMD EPYC 7702P, dengan 64 core / 128 thread dan kecepatan 2.0 GHz.

    📚 Sumber (5 chunks):
    • Spesifikasi ALELEON Supercomputer  (https://wiki.efisonlt.com/wiki/Spesifikasi_ALELEON_Supercomputer)
    • MPI ALELEON Supercomputer  (https://wiki.efisonlt.com/wiki/MPI_ALELEON_Supercomputer)
    • Submit Script ALELEON Supercomputer  (https://wiki.efisonlt.com/wiki/Submit_Script_ALELEON_Supercomputer)
    • TRIAL A6  (https://wiki.efisonlt.com/wiki/TRIAL_A6)

============================================================
[Q13/197] Berapa RAM efektif per node di partisi epyc?
------------------------------------------------------------
Rendering prompts:   0%|          | 0/1 [00:00<?, ?it/s]Rendering prompts: 100%|██████████| 1/1 [00:00<00:00, 417.76it/s]
Processed prompts:   0%|          | 0/1 [00:00<?, ?it/s, est. speed input: 0.00 toks/s, output: 0.00 toks/s]Processed prompts: 100%|██████████| 1/1 [00:00<00:00,  1.96it/s, est. speed input: 7254.30 toks/s, output: 17.63 toks/s]Processed prompts: 100%|██████████| 1/1 [00:00<00:00,  1.96it/s, est. speed input: 7254.30 toks/s, output: 17.63 toks/s]Processed prompts: 100%|██████████| 1/1 [00:00<00:00,  1.96it/s, est. speed input: 7254.30 toks/s, output: 17.63 toks/s]
240GB efektif

    📚 Sumber (5 chunks):
    • MPI ALELEON Supercomputer  (https://wiki.efisonlt.com/wiki/MPI_ALELEON_Supercomputer)
    • Spesifikasi ALELEON Supercomputer  (https://wiki.efisonlt.com/wiki/Spesifikasi_ALELEON_Supercomputer)
    • Submit Script ALELEON Supercomputer  (https://wiki.efisonlt.com/wiki/Submit_Script_ALELEON_Supercomputer)
    • TRIAL A6  (https://wiki.efisonlt.com/wiki/TRIAL_A6)

============================================================
[Q14/197] Berapa RAM efektif di partisi epyc-jumbo?
------------------------------------------------------------
Rendering prompts:   0%|          | 0/1 [00:00<?, ?it/s]Rendering prompts: 100%|██████████| 1/1 [00:00<00:00, 414.58it/s]
Processed prompts:   0%|          | 0/1 [00:00<?, ?it/s, est. speed input: 0.00 toks/s, output: 0.00 toks/s]Processed prompts: 100%|██████████| 1/1 [00:00<00:00,  1.37it/s, est. speed input: 4947.93 toks/s, output: 17.79 toks/s]Processed prompts: 100%|██████████| 1/1 [00:00<00:00,  1.37it/s, est. speed input: 4947.93 toks/s, output: 17.79 toks/s]Processed prompts: 100%|██████████| 1/1 [00:00<00:00,  1.37it/s, est. speed input: 4947.93 toks/s, output: 17.79 toks/s]
Saya tidak menemukan informasi tersebut di sistem.

    📚 Sumber (5 chunks):
    • MPI ALELEON Supercomputer  (https://wiki.efisonlt.com/wiki/MPI_ALELEON_Supercomputer)
    • Spesifikasi ALELEON Supercomputer  (https://wiki.efisonlt.com/wiki/Spesifikasi_ALELEON_Supercomputer)
    • TRIAL A6  (https://wiki.efisonlt.com/wiki/TRIAL_A6)
    • SW-AJFT  (https://wiki.efisonlt.com/wiki/SW-AJFT)
    • SW-GXN  (https://wiki.efisonlt.com/wiki/SW-GXN)

============================================================
[Q15/197] GPU apa yang digunakan di partisi ampere?
------------------------------------------------------------
Rendering prompts:   0%|          | 0/1 [00:00<?, ?it/s]Rendering prompts: 100%|██████████| 1/1 [00:00<00:00, 383.57it/s]
Processed prompts:   0%|          | 0/1 [00:00<?, ?it/s, est. speed input: 0.00 toks/s, output: 0.00 toks/s]Processed prompts: 100%|██████████| 1/1 [00:01<00:00,  1.22s/it, est. speed input: 3268.16 toks/s, output: 17.27 toks/s]Processed prompts: 100%|██████████| 1/1 [00:01<00:00,  1.22s/it, est. speed input: 3268.16 toks/s, output: 17.27 toks/s]Processed prompts: 100%|██████████| 1/1 [00:01<00:00,  1.22s/it, est. speed input: 3268.16 toks/s, output: 17.27 toks/s]
GPU yang digunakan di partisi ampere adalah RTX 3090 NVLink.

    📚 Sumber (5 chunks):
    • Katalog Software ALELEON Supercomputer  (https://wiki.efisonlt.com/wiki/Katalog_Software_ALELEON_Supercomputer)
    • SW-AJFT  (https://wiki.efisonlt.com/wiki/SW-AJFT)
    • Daftar Software Komputasi dan Tutorial Penggunaan  (https://wiki.efisonlt.com/wiki/Daftar_Software_Komputasi_dan_Tutorial_Penggunaan)
    • MPI ALELEON Supercomputer  (https://wiki.efisonlt.com/wiki/MPI_ALELEON_Supercomputer)
    • Submit Script ALELEON Supercomputer  (https://wiki.efisonlt.com/wiki/Submit_Script_ALELEON_Supercomputer)

============================================================
[Q16/197] Berapa jumlah GPU di compute node ampere?
------------------------------------------------------------
Rendering prompts:   0%|          | 0/1 [00:00<?, ?it/s]Rendering prompts: 100%|██████████| 1/1 [00:00<00:00, 356.33it/s]
Processed prompts:   0%|          | 0/1 [00:00<?, ?it/s, est. speed input: 0.00 toks/s, output: 0.00 toks/s]Processed prompts: 100%|██████████| 1/1 [00:01<00:00,  1.29s/it, est. speed input: 3134.81 toks/s, output: 20.15 toks/s]Processed prompts: 100%|██████████| 1/1 [00:01<00:00,  1.29s/it, est. speed input: 3134.81 toks/s, output: 20.15 toks/s]Processed prompts: 100%|██████████| 1/1 [00:01<00:00,  1.29s/it, est. speed input: 3134.81 toks/s, output: 20.15 toks/s]
Compute node GPU (Partisi ampere) terpasang 2x RTX 3090 NVLink.

    📚 Sumber (5 chunks):
    • Katalog Software ALELEON Supercomputer  (https://wiki.efisonlt.com/wiki/Katalog_Software_ALELEON_Supercomputer)
    • Spesifikasi ALELEON Supercomputer  (https://wiki.efisonlt.com/wiki/Spesifikasi_ALELEON_Supercomputer)
    • MPI ALELEON Supercomputer  (https://wiki.efisonlt.com/wiki/MPI_ALELEON_Supercomputer)
    • Daftar Software Komputasi dan Tutorial Penggunaan  (https://wiki.efisonlt.com/wiki/Daftar_Software_Komputasi_dan_Tutorial_Penggunaan)
    • Sausage dan Aturan Metrik Penggunaan ALELEON  (https://wiki.efisonlt.com/wiki/Sausage_dan_Aturan_Metrik_Penggunaan_ALELEON)

============================================================
[Q17/197] Apa interkoneksi yang digunakan di partisi epyc?
------------------------------------------------------------
Rendering prompts:   0%|          | 0/1 [00:00<?, ?it/s]Rendering prompts: 100%|██████████| 1/1 [00:00<00:00, 454.57it/s]
Processed prompts:   0%|          | 0/1 [00:00<?, ?it/s, est. speed input: 0.00 toks/s, output: 0.00 toks/s]Processed prompts: 100%|██████████| 1/1 [00:01<00:00,  1.13s/it, est. speed input: 2856.04 toks/s, output: 22.06 toks/s]Processed prompts: 100%|██████████| 1/1 [00:01<00:00,  1.13s/it, est. speed input: 2856.04 toks/s, output: 22.06 toks/s]Processed prompts: 100%|██████████| 1/1 [00:01<00:00,  1.13s/it, est. speed input: 2856.04 toks/s, output: 22.06 toks/s]
Interkoneksi yang digunakan di partisi epyc adalah Mellanox RoCE 100Gbps.

    📚 Sumber (5 chunks):
    • Spesifikasi ALELEON Supercomputer  (https://wiki.efisonlt.com/wiki/Spesifikasi_ALELEON_Supercomputer)
    • Trial Testing  (https://wiki.efisonlt.com/wiki/Trial_Testing)
    • TRIAL A6  (https://wiki.efisonlt.com/wiki/TRIAL_A6)
    • MPI ALELEON Supercomputer  (https://wiki.efisonlt.com/wiki/MPI_ALELEON_Supercomputer)

============================================================
[Q18/197] Berapa kapasitas hot storage SSD di ALELEON?
------------------------------------------------------------
Rendering prompts:   0%|          | 0/1 [00:00<?, ?it/s]Rendering prompts: 100%|██████████| 1/1 [00:00<00:00, 509.70it/s]
Processed prompts:   0%|          | 0/1 [00:00<?, ?it/s, est. speed input: 0.00 toks/s, output: 0.00 toks/s]Processed prompts: 100%|██████████| 1/1 [00:00<00:00,  1.12it/s, est. speed input: 3322.00 toks/s, output: 23.62 toks/s]Processed prompts: 100%|██████████| 1/1 [00:00<00:00,  1.12it/s, est. speed input: 3322.00 toks/s, output: 23.62 toks/s]Processed prompts: 100%|██████████| 1/1 [00:00<00:00,  1.12it/s, est. speed input: 3322.00 toks/s, output: 23.62 toks/s]
Kapasitas hot storage SSD di ALELEON adalah 28TB efektif.

    📚 Sumber (5 chunks):
    • ALELEON Supercomputer  (https://wiki.efisonlt.com/wiki/ALELEON_Supercomputer)
    • Spesifikasi ALELEON Supercomputer  (https://wiki.efisonlt.com/wiki/Spesifikasi_ALELEON_Supercomputer)
    • Migrasi Akun dan Data Mk.III ke Mk.V  (https://wiki.efisonlt.com/wiki/Migrasi_Akun_dan_Data_Mk.III_ke_Mk.V)
    • SW-GXN  (https://wiki.efisonlt.com/wiki/SW-GXN)
    • Pendaftaran dan Biaya ALELEON Supercomputer  (https://wiki.efisonlt.com/wiki/Pendaftaran_dan_Biaya_ALELEON_Supercomputer)

============================================================
[Q19/197] Berapa kapasitas cold storage HDD di ALELEON?
------------------------------------------------------------
Rendering prompts:   0%|          | 0/1 [00:00<?, ?it/s]Rendering prompts: 100%|██████████| 1/1 [00:00<00:00, 471.01it/s]
Processed prompts:   0%|          | 0/1 [00:00<?, ?it/s, est. speed input: 0.00 toks/s, output: 0.00 toks/s]Processed prompts: 100%|██████████| 1/1 [00:00<00:00,  1.11it/s, est. speed input: 3187.99 toks/s, output: 24.41 toks/s]Processed prompts: 100%|██████████| 1/1 [00:00<00:00,  1.11it/s, est. speed input: 3187.99 toks/s, output: 24.41 toks/s]Processed prompts: 100%|██████████| 1/1 [00:00<00:00,  1.11it/s, est. speed input: 3187.99 toks/s, output: 24.41 toks/s]
Kapasitas cold storage HDD di ALELEON adalah 83TiB efektif.

    📚 Sumber (5 chunks):
    • ALELEON Supercomputer  (https://wiki.efisonlt.com/wiki/ALELEON_Supercomputer)
    • Spesifikasi ALELEON Supercomputer  (https://wiki.efisonlt.com/wiki/Spesifikasi_ALELEON_Supercomputer)
    • Pendaftaran dan Biaya ALELEON Supercomputer  (https://wiki.efisonlt.com/wiki/Pendaftaran_dan_Biaya_ALELEON_Supercomputer)
    • Migrasi Akun dan Data Mk.III ke Mk.V  (https://wiki.efisonlt.com/wiki/Migrasi_Akun_dan_Data_Mk.III_ke_Mk.V)

============================================================
[Q20/197] Apakah ALELEON mendukung CUDA 11 ke bawah di partisi ampere?
------------------------------------------------------------
Rendering prompts:   0%|          | 0/1 [00:00<?, ?it/s]Rendering prompts: 100%|██████████| 1/1 [00:00<00:00, 347.04it/s]
Processed prompts:   0%|          | 0/1 [00:00<?, ?it/s, est. speed input: 0.00 toks/s, output: 0.00 toks/s]Processed prompts: 100%|██████████| 1/1 [00:01<00:00,  1.31s/it, est. speed input: 3116.09 toks/s, output: 19.07 toks/s]Processed prompts: 100%|██████████| 1/1 [00:01<00:00,  1.31s/it, est. speed input: 3116.09 toks/s, output: 19.07 toks/s]Processed prompts: 100%|██████████| 1/1 [00:01<00:00,  1.31s/it, est. speed input: 3116.09 toks/s, output: 19.07 toks/s]
Tidak, ALELEON tidak mendukung CUDA 11 ke bawah di partisi ampere.

    📚 Sumber (5 chunks):
    • TRIAL A6  (https://wiki.efisonlt.com/wiki/TRIAL_A6)
    • Katalog Software ALELEON Supercomputer  (https://wiki.efisonlt.com/wiki/Katalog_Software_ALELEON_Supercomputer)
    • Daftar Software Komputasi dan Tutorial Penggunaan  (https://wiki.efisonlt.com/wiki/Daftar_Software_Komputasi_dan_Tutorial_Penggunaan)
    • Spesifikasi ALELEON Supercomputer  (https://wiki.efisonlt.com/wiki/Spesifikasi_ALELEON_Supercomputer)

============================================================
[Q21/197] Apa itu CCH?
------------------------------------------------------------
Rendering prompts:   0%|          | 0/1 [00:00<?, ?it/s]Rendering prompts: 100%|██████████| 1/1 [00:00<00:00, 649.98it/s]
Processed prompts:   0%|          | 0/1 [00:00<?, ?it/s, est. speed input: 0.00 toks/s, output: 0.00 toks/s]Processed prompts: 100%|██████████| 1/1 [00:01<00:00,  1.11s/it, est. speed input: 1758.60 toks/s, output: 28.71 toks/s]Processed prompts: 100%|██████████| 1/1 [00:01<00:00,  1.11s/it, est. speed input: 1758.60 toks/s, output: 28.71 toks/s]Processed prompts: 100%|██████████| 1/1 [00:01<00:00,  1.11s/it, est. speed input: 1758.60 toks/s, output: 28.71 toks/s]
CCH adalah singkatan dari CPU Core Hour, yang merupakan metrik penggunaan core thread CPU per jam di ALELEON Supercomputer.

    📚 Sumber (5 chunks):
    • Core Hour  (https://wiki.efisonlt.com/wiki/Core_Hour)
    • Sausage dan Aturan Metrik Penggunaan ALELEON  (https://wiki.efisonlt.com/wiki/Sausage_dan_Aturan_Metrik_Penggunaan_ALELEON)
    • Komputasi Python dengan Python venv User  (https://wiki.efisonlt.com/wiki/Komputasi_Python_dengan_Python_venv_User)
    • Software Komputasi dari User  (https://wiki.efisonlt.com/wiki/Software_Komputasi_dari_User)
    • AI Compilation  (https://wiki.efisonlt.com/wiki/AI_Compilation)

============================================================
[Q22/197] Apa itu GH?
------------------------------------------------------------
Rendering prompts:   0%|          | 0/1 [00:00<?, ?it/s]Rendering prompts: 100%|██████████| 1/1 [00:00<00:00, 891.65it/s]
[...]
[Q183/197] Apakah user bisa mengubah konfigurasi Slurm sendiri?
------------------------------------------------------------
Rendering prompts:   0%|          | 0/1 [00:00<?, ?it/s]Rendering prompts: 100%|██████████| 1/1 [00:00<00:00, 468.43it/s]
Processed prompts:   0%|          | 0/1 [00:00<?, ?it/s, est. speed input: 0.00 toks/s, output: 0.00 toks/s]Processed prompts: 100%|██████████| 1/1 [00:00<00:00,  1.18it/s, est. speed input: 3600.36 toks/s, output: 18.83 toks/s]Processed prompts: 100%|██████████| 1/1 [00:00<00:00,  1.18it/s, est. speed input: 3600.36 toks/s, output: 18.83 toks/s]Processed prompts: 100%|██████████| 1/1 [00:00<00:00,  1.18it/s, est. speed input: 3600.36 toks/s, output: 18.83 toks/s]
Ya, user dapat mengubah konfigurasi Slurm sendiri.

    📚 Sumber (5 chunks):
    • CP2K  (https://wiki.efisonlt.com/wiki/CP2K)
    • Metode Komputasi di ALELEON  (https://wiki.efisonlt.com/wiki/Metode_Komputasi_di_ALELEON)
    • Limitasi Fair Usage ALELEON Supercomputer  (https://wiki.efisonlt.com/wiki/Limitasi_Fair_Usage_ALELEON_Supercomputer)
    • GMX-MMPBSA  (https://wiki.efisonlt.com/wiki/GMX-MMPBSA)
    • R  (https://wiki.efisonlt.com/wiki/R)

============================================================
[Q184/197] Berapa waktu rata-rata antrian job di ALELEON?
------------------------------------------------------------
Rendering prompts:   0%|          | 0/1 [00:00<?, ?it/s]Rendering prompts: 100%|██████████| 1/1 [00:00<00:00, 510.94it/s]
Processed prompts:   0%|          | 0/1 [00:00<?, ?it/s, est. speed input: 0.00 toks/s, output: 0.00 toks/s]Processed prompts: 100%|██████████| 1/1 [00:00<00:00,  1.36it/s, est. speed input: 3963.06 toks/s, output: 17.64 toks/s]Processed prompts: 100%|██████████| 1/1 [00:00<00:00,  1.36it/s, est. speed input: 3963.06 toks/s, output: 17.64 toks/s]Processed prompts: 100%|██████████| 1/1 [00:00<00:00,  1.36it/s, est. speed input: 3963.06 toks/s, output: 17.64 toks/s]
Saya tidak menemukan informasi tersebut di sistem.

    📚 Sumber (5 chunks):
    • Limitasi Fair Usage ALELEON Supercomputer  (https://wiki.efisonlt.com/wiki/Limitasi_Fair_Usage_ALELEON_Supercomputer)
    • Sausage dan Aturan Metrik Penggunaan ALELEON  (https://wiki.efisonlt.com/wiki/Sausage_dan_Aturan_Metrik_Penggunaan_ALELEON)
    • Kode Reason ALELEON Supercomputer  (https://wiki.efisonlt.com/wiki/Kode_Reason_ALELEON_Supercomputer)
    • Tutorial Menggunakan ALELEON Supercomputer Mk.V  (https://wiki.efisonlt.com/wiki/Tutorial_Menggunakan_ALELEON_Supercomputer_Mk.V)
    • Pendaftaran dan Biaya ALELEON Supercomputer  (https://wiki.efisonlt.com/wiki/Pendaftaran_dan_Biaya_ALELEON_Supercomputer)

============================================================
[Q185/197] Apakah ALELEON support InfiniBand?
------------------------------------------------------------
Rendering prompts:   0%|          | 0/1 [00:00<?, ?it/s]Rendering prompts: 100%|██████████| 1/1 [00:00<00:00, 499.14it/s]
Processed prompts:   0%|          | 0/1 [00:00<?, ?it/s, est. speed input: 0.00 toks/s, output: 0.00 toks/s]Processed prompts: 100%|██████████| 1/1 [00:00<00:00,  1.34it/s, est. speed input: 4157.32 toks/s, output: 17.40 toks/s]Processed prompts: 100%|██████████| 1/1 [00:00<00:00,  1.34it/s, est. speed input: 4157.32 toks/s, output: 17.40 toks/s]Processed prompts: 100%|██████████| 1/1 [00:00<00:00,  1.34it/s, est. speed input: 4157.32 toks/s, output: 17.40 toks/s]
Saya tidak menemukan informasi tersebut di sistem.

    📚 Sumber (5 chunks):
    • ALELEON Supercomputer  (https://wiki.efisonlt.com/wiki/ALELEON_Supercomputer)
    • Pendaftaran dan Biaya ALELEON Supercomputer  (https://wiki.efisonlt.com/wiki/Pendaftaran_dan_Biaya_ALELEON_Supercomputer)
    • Tutorial Menggunakan ALELEON Supercomputer Mk.V  (https://wiki.efisonlt.com/wiki/Tutorial_Menggunakan_ALELEON_Supercomputer_Mk.V)

============================================================
[Q186/197] Berapa jumlah core fisik per CPU AMD EPYC 7702P?
------------------------------------------------------------
Rendering prompts:   0%|          | 0/1 [00:00<?, ?it/s]Rendering prompts: 100%|██████████| 1/1 [00:00<00:00, 423.80it/s]
Processed prompts:   0%|          | 0/1 [00:00<?, ?it/s, est. speed input: 0.00 toks/s, output: 0.00 toks/s]Processed prompts: 100%|██████████| 1/1 [00:01<00:00,  1.10s/it, est. speed input: 2977.86 toks/s, output: 20.93 toks/s]Processed prompts: 100%|██████████| 1/1 [00:01<00:00,  1.10s/it, est. speed input: 2977.86 toks/s, output: 20.93 toks/s]Processed prompts: 100%|██████████| 1/1 [00:01<00:00,  1.10s/it, est. speed input: 2977.86 toks/s, output: 20.93 toks/s]
Jumlah core fisik per CPU AMD EPYC 7702P adalah 64 core.

    📚 Sumber (5 chunks):
    • Spesifikasi ALELEON Supercomputer  (https://wiki.efisonlt.com/wiki/Spesifikasi_ALELEON_Supercomputer)
    • CP2K  (https://wiki.efisonlt.com/wiki/CP2K)
    • MPI ALELEON Supercomputer  (https://wiki.efisonlt.com/wiki/MPI_ALELEON_Supercomputer)
    • OpenMX  (https://wiki.efisonlt.com/wiki/OpenMX)

============================================================
[Q187/197] Apakah ALELEON menyediakan layanan pelatihan HPC untuk pemula?
------------------------------------------------------------
Rendering prompts:   0%|          | 0/1 [00:00<?, ?it/s]Rendering prompts: 100%|██████████| 1/1 [00:00<00:00, 482.99it/s]
Processed prompts:   0%|          | 0/1 [00:00<?, ?it/s, est. speed input: 0.00 toks/s, output: 0.00 toks/s]Processed prompts: 100%|██████████| 1/1 [00:00<00:00,  1.51it/s, est. speed input: 4712.67 toks/s, output: 19.67 toks/s]Processed prompts: 100%|██████████| 1/1 [00:00<00:00,  1.51it/s, est. speed input: 4712.67 toks/s, output: 19.67 toks/s]Processed prompts: 100%|██████████| 1/1 [00:00<00:00,  1.51it/s, est. speed input: 4712.67 toks/s, output: 19.67 toks/s]
Saya tidak menemukan informasi tersebut di sistem.

    📚 Sumber (5 chunks):
    • ALELEON Supercomputer  (https://wiki.efisonlt.com/wiki/ALELEON_Supercomputer)
    • Pendaftaran dan Biaya ALELEON Supercomputer  (https://wiki.efisonlt.com/wiki/Pendaftaran_dan_Biaya_ALELEON_Supercomputer)
    • Tutorial Menggunakan ALELEON Supercomputer Mk.V  (https://wiki.efisonlt.com/wiki/Tutorial_Menggunakan_ALELEON_Supercomputer_Mk.V)

============================================================
[Q188/197] Berapa uptime SLA yang dijamin oleh EFISON?
------------------------------------------------------------
Rendering prompts:   0%|          | 0/1 [00:00<?, ?it/s]Rendering prompts: 100%|██████████| 1/1 [00:00<00:00, 580.13it/s]
Processed prompts:   0%|          | 0/1 [00:00<?, ?it/s, est. speed input: 0.00 toks/s, output: 0.00 toks/s]Processed prompts: 100%|██████████| 1/1 [00:00<00:00,  1.71it/s, est. speed input: 3904.59 toks/s, output: 22.20 toks/s]Processed prompts: 100%|██████████| 1/1 [00:00<00:00,  1.71it/s, est. speed input: 3904.59 toks/s, output: 22.20 toks/s]Processed prompts: 100%|██████████| 1/1 [00:00<00:00,  1.71it/s, est. speed input: 3904.59 toks/s, output: 22.20 toks/s]
Saya tidak menemukan informasi tersebut di sistem.

    📚 Sumber (5 chunks):
    • EFIRO Account Manager  (https://wiki.efisonlt.com/wiki/EFIRO_Account_Manager)
    • Registrasi SSH Key ALELEON Supercomputer  (https://wiki.efisonlt.com/wiki/Registrasi_SSH_Key_ALELEON_Supercomputer)
    • SIESTA  (https://wiki.efisonlt.com/wiki/SIESTA)
    • PHASE/0  (https://wiki.efisonlt.com/wiki/PHASE/0)
    • Tutorial Menggunakan ALELEON Supercomputer Mk.V  (https://wiki.efisonlt.com/wiki/Tutorial_Menggunakan_ALELEON_Supercomputer_Mk.V)

============================================================
[Q189/197] Apakah ALELEON mendukung remote desktop via RDP?
------------------------------------------------------------
Rendering prompts:   0%|          | 0/1 [00:00<?, ?it/s]Rendering prompts: 100%|██████████| 1/1 [00:00<00:00, 433.52it/s]
Processed prompts:   0%|          | 0/1 [00:00<?, ?it/s, est. speed input: 0.00 toks/s, output: 0.00 toks/s]Processed prompts: 100%|██████████| 1/1 [00:00<00:00,  1.20it/s, est. speed input: 4089.99 toks/s, output: 15.57 toks/s]Processed prompts: 100%|██████████| 1/1 [00:00<00:00,  1.20it/s, est. speed input: 4089.99 toks/s, output: 15.57 toks/s]Processed prompts: 100%|██████████| 1/1 [00:00<00:00,  1.20it/s, est. speed input: 4089.99 toks/s, output: 15.57 toks/s]
Saya tidak menemukan informasi tersebut di sistem.

    📚 Sumber (5 chunks):
    • ALELEON Desktop  (https://wiki.efisonlt.com/wiki/ALELEON_Desktop)
    • Tutorial Menggunakan ALELEON Supercomputer Mk.V  (https://wiki.efisonlt.com/wiki/Tutorial_Menggunakan_ALELEON_Supercomputer_Mk.V)
    • ALELEON Supercomputer  (https://wiki.efisonlt.com/wiki/ALELEON_Supercomputer)
    • SW-GXN  (https://wiki.efisonlt.com/wiki/SW-GXN)
    • Spesifikasi ALELEON Supercomputer  (https://wiki.efisonlt.com/wiki/Spesifikasi_ALELEON_Supercomputer)

============================================================
[Q190/197] Berapa jumlah mahasiswa yang pernah menggunakan EUREKA?
------------------------------------------------------------
Rendering prompts:   0%|          | 0/1 [00:00<?, ?it/s]Rendering prompts: 100%|██████████| 1/1 [00:00<00:00, 499.74it/s]
Processed prompts:   0%|          | 0/1 [00:00<?, ?it/s, est. speed input: 0.00 toks/s, output: 0.00 toks/s]Processed prompts: 100%|██████████| 1/1 [00:00<00:00,  1.37it/s, est. speed input: 3924.12 toks/s, output: 17.82 toks/s]Processed prompts: 100%|██████████| 1/1 [00:00<00:00,  1.37it/s, est. speed input: 3924.12 toks/s, output: 17.82 toks/s]Processed prompts: 100%|██████████| 1/1 [00:00<00:00,  1.37it/s, est. speed input: 3924.12 toks/s, output: 17.82 toks/s]
Saya tidak menemukan informasi tersebut di sistem.

    📚 Sumber (5 chunks):
    • EUREKA!  (https://wiki.efisonlt.com/wiki/EUREKA!)
    • EUREKA! Periode 2  (https://wiki.efisonlt.com/wiki/EUREKA!_Periode_2)
    • PHASE/0  (https://wiki.efisonlt.com/wiki/PHASE/0)
    • Migrasi Akun dan Data Mk.III ke Mk.V  (https://wiki.efisonlt.com/wiki/Migrasi_Akun_dan_Data_Mk.III_ke_Mk.V)
    • Pendaftaran dan Biaya ALELEON Supercomputer  (https://wiki.efisonlt.com/wiki/Pendaftaran_dan_Biaya_ALELEON_Supercomputer)

============================================================
[Q191/197] Apakah pengguna bisa mengakses BIOS atau firmware node?
------------------------------------------------------------
Rendering prompts:   0%|          | 0/1 [00:00<?, ?it/s]Rendering prompts: 100%|██████████| 1/1 [00:00<00:00, 1139.45it/s]
Processed prompts:   0%|          | 0/1 [00:00<?, ?it/s, est. speed input: 0.00 toks/s, output: 0.00 toks/s]Processed prompts: 100%|██████████| 1/1 [00:00<00:00,  2.36it/s, est. speed input: 2480.29 toks/s, output: 30.62 toks/s]Processed prompts: 100%|██████████| 1/1 [00:00<00:00,  2.36it/s, est. speed input: 2480.29 toks/s, output: 30.62 toks/s]Processed prompts: 100%|██████████| 1/1 [00:00<00:00,  2.35it/s, est. speed input: 2480.29 toks/s, output: 30.62 toks/s]
Saya tidak menemukan informasi tersebut di sistem.

    📚 Sumber (5 chunks):
    • Komputasi Python dengan Python venv User  (https://wiki.efisonlt.com/wiki/Komputasi_Python_dengan_Python_venv_User)
    • Software Komputasi dari User  (https://wiki.efisonlt.com/wiki/Software_Komputasi_dari_User)
    • AI Compilation  (https://wiki.efisonlt.com/wiki/AI_Compilation)
    • Trial Testing  (https://wiki.efisonlt.com/wiki/Trial_Testing)
    • Komputasi Python  (https://wiki.efisonlt.com/wiki/Komputasi_Python)

============================================================
[Q192/197] Apakah ALELEON menyediakan API untuk submit job secara programmatic?
------------------------------------------------------------
Rendering prompts:   0%|          | 0/1 [00:00<?, ?it/s]Rendering prompts: 100%|██████████| 1/1 [00:00<00:00, 456.35it/s]
Processed prompts:   0%|          | 0/1 [00:00<?, ?it/s, est. speed input: 0.00 toks/s, output: 0.00 toks/s]Processed prompts: 100%|██████████| 1/1 [00:00<00:00,  1.26it/s, est. speed input: 4077.77 toks/s, output: 16.42 toks/s]Processed prompts: 100%|██████████| 1/1 [00:00<00:00,  1.26it/s, est. speed input: 4077.77 toks/s, output: 16.42 toks/s]Processed prompts: 100%|██████████| 1/1 [00:00<00:00,  1.26it/s, est. speed input: 4077.77 toks/s, output: 16.42 toks/s]
Saya tidak menemukan informasi tersebut di sistem.

    📚 Sumber (5 chunks):
    • DFTB%2B  (https://wiki.efisonlt.com/wiki/DFTB%2B)
    • GAMESS  (https://wiki.efisonlt.com/wiki/GAMESS)
    • ALELEON Supercomputer  (https://wiki.efisonlt.com/wiki/ALELEON_Supercomputer)
    • SW-AMK  (https://wiki.efisonlt.com/wiki/SW-AMK)
    • Sausage dan Aturan Metrik Penggunaan ALELEON  (https://wiki.efisonlt.com/wiki/Sausage_dan_Aturan_Metrik_Penggunaan_ALELEON)

============================================================
[Q193/197] Berapa jumlah penelitian yang sedang berjalan di ALELEON saat ini?
------------------------------------------------------------
Rendering prompts:   0%|          | 0/1 [00:00<?, ?it/s]Rendering prompts: 100%|██████████| 1/1 [00:00<00:00, 650.68it/s]
Processed prompts:   0%|          | 0/1 [00:00<?, ?it/s, est. speed input: 0.00 toks/s, output: 0.00 toks/s]Processed prompts: 100%|██████████| 1/1 [00:00<00:00,  1.84it/s, est. speed input: 3613.51 toks/s, output: 23.94 toks/s]Processed prompts: 100%|██████████| 1/1 [00:00<00:00,  1.84it/s, est. speed input: 3613.51 toks/s, output: 23.94 toks/s]Processed prompts: 100%|██████████| 1/1 [00:00<00:00,  1.84it/s, est. speed input: 3613.51 toks/s, output: 23.94 toks/s]
Saya tidak menemukan informasi tersebut di sistem.

    📚 Sumber (5 chunks):
    • ALELEON Supercomputer  (https://wiki.efisonlt.com/wiki/ALELEON_Supercomputer)
    • EUREKA!  (https://wiki.efisonlt.com/wiki/EUREKA!)
    • AutoGluon  (https://wiki.efisonlt.com/wiki/AutoGluon)
    • Publikasi Pengguna ALELEON Supercomputer  (https://wiki.efisonlt.com/wiki/Publikasi_Pengguna_ALELEON_Supercomputer)
    • Daftar Environment Python ALELEON  (https://wiki.efisonlt.com/wiki/Daftar_Environment_Python_ALELEON)

============================================================
[Q194/197] Apakah ALELEON mendukung Singularity selain Apptainer?
------------------------------------------------------------
Rendering prompts:   0%|          | 0/1 [00:00<?, ?it/s]Rendering prompts: 100%|██████████| 1/1 [00:00<00:00, 508.83it/s]
Processed prompts:   0%|          | 0/1 [00:00<?, ?it/s, est. speed input: 0.00 toks/s, output: 0.00 toks/s]Processed prompts: 100%|██████████| 1/1 [00:01<00:00,  1.48s/it, est. speed input: 1904.75 toks/s, output: 29.09 toks/s]Processed prompts: 100%|██████████| 1/1 [00:01<00:00,  1.48s/it, est. speed input: 1904.75 toks/s, output: 29.09 toks/s]Processed prompts: 100%|██████████| 1/1 [00:01<00:00,  1.48s/it, est. speed input: 1904.75 toks/s, output: 29.09 toks/s]
Apakah ALELEON mendukung Singularity selain Apptainer?

     Tidak, ALELEON mendukung Apptainer sebagai platform container utama, bukan Singularity.

    📚 Sumber (5 chunks):
    • ALELEON Supercomputer  (https://wiki.efisonlt.com/wiki/ALELEON_Supercomputer)
    • Komputasi dengan Container User via Apptainer  (https://wiki.efisonlt.com/wiki/Komputasi_dengan_Container_User_via_Apptainer)
    • Daftar Environment Python ALELEON  (https://wiki.efisonlt.com/wiki/Daftar_Environment_Python_ALELEON)
    • Daftar Software Komputasi dan Tutorial Penggunaan  (https://wiki.efisonlt.com/wiki/Daftar_Software_Komputasi_dan_Tutorial_Penggunaan)
    • Tutorial Menggunakan ALELEON Supercomputer Mk.V  (https://wiki.efisonlt.com/wiki/Tutorial_Menggunakan_ALELEON_Supercomputer_Mk.V)

============================================================
[Q195/197] Berapa total daya listrik yang dikonsumsi ALELEON Supercomputer?
------------------------------------------------------------
Rendering prompts:   0%|          | 0/1 [00:00<?, ?it/s]Rendering prompts: 100%|██████████| 1/1 [00:00<00:00, 523.44it/s]
Processed prompts:   0%|          | 0/1 [00:00<?, ?it/s, est. speed input: 0.00 toks/s, output: 0.00 toks/s]Processed prompts: 100%|██████████| 1/1 [00:00<00:00,  1.64it/s, est. speed input: 4761.41 toks/s, output: 21.31 toks/s]Processed prompts: 100%|██████████| 1/1 [00:00<00:00,  1.64it/s, est. speed input: 4761.41 toks/s, output: 21.31 toks/s]Processed prompts: 100%|██████████| 1/1 [00:00<00:00,  1.64it/s, est. speed input: 4761.41 toks/s, output: 21.31 toks/s]
Saya tidak menemukan informasi tersebut di sistem.

    📚 Sumber (5 chunks):
    • ALELEON Supercomputer  (https://wiki.efisonlt.com/wiki/ALELEON_Supercomputer)
    • Spesifikasi ALELEON Supercomputer  (https://wiki.efisonlt.com/wiki/Spesifikasi_ALELEON_Supercomputer)
    • Pendaftaran dan Biaya ALELEON Supercomputer  (https://wiki.efisonlt.com/wiki/Pendaftaran_dan_Biaya_ALELEON_Supercomputer)
    • Migrasi Akun dan Data Mk.III ke Mk.V  (https://wiki.efisonlt.com/wiki/Migrasi_Akun_dan_Data_Mk.III_ke_Mk.V)

============================================================
[Q196/197] Apakah ada diskon untuk pembelian core hour dalam jumlah besar?
------------------------------------------------------------
Rendering prompts:   0%|          | 0/1 [00:00<?, ?it/s]Rendering prompts: 100%|██████████| 1/1 [00:00<00:00, 547.70it/s]
Processed prompts:   0%|          | 0/1 [00:00<?, ?it/s, est. speed input: 0.00 toks/s, output: 0.00 toks/s]Processed prompts: 100%|██████████| 1/1 [00:00<00:00,  1.43it/s, est. speed input: 3864.17 toks/s, output: 18.54 toks/s]Processed prompts: 100%|██████████| 1/1 [00:00<00:00,  1.43it/s, est. speed input: 3864.17 toks/s, output: 18.54 toks/s]Processed prompts: 100%|██████████| 1/1 [00:00<00:00,  1.43it/s, est. speed input: 3864.17 toks/s, output: 18.54 toks/s]
Saya tidak menemukan informasi tersebut di sistem.

    📚 Sumber (5 chunks):
    • Core Hour  (https://wiki.efisonlt.com/wiki/Core_Hour)
    • Troubleshooting dan Support  (https://wiki.efisonlt.com/wiki/Troubleshooting_dan_Support)
    • Sausage dan Aturan Metrik Penggunaan ALELEON  (https://wiki.efisonlt.com/wiki/Sausage_dan_Aturan_Metrik_Penggunaan_ALELEON)
    • Migrasi Akun dan Data Mk.III ke Mk.V  (https://wiki.efisonlt.com/wiki/Migrasi_Akun_dan_Data_Mk.III_ke_Mk.V)

============================================================
[Q197/197] Apakah ALELEON berencana upgrade ke GPU NVIDIA H100?
------------------------------------------------------------
Rendering prompts:   0%|          | 0/1 [00:00<?, ?it/s]Rendering prompts: 100%|██████████| 1/1 [00:00<00:00, 422.90it/s]
Processed prompts:   0%|          | 0/1 [00:00<?, ?it/s, est. speed input: 0.00 toks/s, output: 0.00 toks/s]Processed prompts: 100%|██████████| 1/1 [00:00<00:00,  1.28it/s, est. speed input: 4637.16 toks/s, output: 16.62 toks/s]Processed prompts: 100%|██████████| 1/1 [00:00<00:00,  1.28it/s, est. speed input: 4637.16 toks/s, output: 16.62 toks/s]Processed prompts: 100%|██████████| 1/1 [00:00<00:00,  1.28it/s, est. speed input: 4637.16 toks/s, output: 16.62 toks/s]
Saya tidak menemukan informasi tersebut di sistem.

    📚 Sumber (5 chunks):
    • Spesifikasi ALELEON Supercomputer  (https://wiki.efisonlt.com/wiki/Spesifikasi_ALELEON_Supercomputer)
    • Katalog Software ALELEON Supercomputer  (https://wiki.efisonlt.com/wiki/Katalog_Software_ALELEON_Supercomputer)
    • Daftar Software Komputasi dan Tutorial Penggunaan  (https://wiki.efisonlt.com/wiki/Daftar_Software_Komputasi_dan_Tutorial_Penggunaan)
    • Komputasi dengan Container User via Apptainer  (https://wiki.efisonlt.com/wiki/Komputasi_dengan_Container_User_via_Apptainer)
    • ALELEON Supercomputer  (https://wiki.efisonlt.com/wiki/ALELEON_Supercomputer)

============================================================
Selesai — 197 pertanyaan dijawab.
[rank0]:[W305 11:21:42.006170011 ProcessGroupNCCL.cpp:1524] Warning: WARNING: destroy_process_group() was not called before program exit, which can leak resources. For more info, please see https://pytorch.org/docs/stable/distributed.html#shutdown (function operator())
